CRYSTAL
PRIMVEC
  25.0000000000   0.0000000000   0.0000000000
   0.0000000000  25.0000000000   0.0000000000
   0.0000000000   0.0000000000  25.0000000000
PRIMCOORD
  100    1
 Mn     13.7257638087  11.5018576373  11.5577479523
 Mn     11.4079097995  13.3913272090  11.5613395755
 Mn     11.5754258499  11.2943715023  13.5526955826
 Mn     13.4758371793  13.6009196613  13.5286951270
 Mn     16.0512829246   9.9205785529  11.4083510631
 Mn     16.7088689855  13.1935850636  12.2694632807
 Mn      9.0602698870  14.9866653639  11.3956816567
 Mn      8.3947648585  11.7108958240  12.1975703037
 Mn      9.9437485425   8.9993013391  13.7849898644
 Mn     13.2419171723   8.1175682435  12.8658993962
 Mn     15.0575198406  15.9554746911  13.6548746795
 Mn     11.7814064043  16.6006432834  12.8653369361
 O      13.5192819495  11.6765521294  13.4905173469
 O      15.5837872876  11.8055936719  11.5808228563
 O      14.1714048627   9.7114064277  11.6973545501
 O      13.7048516328  11.4773315565   9.5976751237
 O      15.5619109935  10.1941813765   9.1995608596
 O      16.6774197308   9.8745331025  13.5687700799
 O      16.4750920041   8.0023719339  11.1544317917
 O      17.9737240980  10.2852236186  10.8935106610
 O      18.2478457167  12.5501085072  11.1420255348
 O      16.0622572763  14.3895459355  10.4124891880
 O      11.5599281077  13.2688922242  13.4780755284
 O       9.5314809563  13.1480324851  11.5746590837
 O      10.9710065051  15.2613525508  11.7225983996
 O      11.4428943914  13.4879798546   9.5974555488
 O       9.6262760835  14.8335829850   9.2304252834
 O       8.3056704461  15.0917156052  13.4913212069
 O       7.4729774082  12.9852974775  13.7489185954
 O       8.6577027025  16.9279038321  11.1928805157
 O       7.0408106360  10.2964216455  12.6460180382
 O       7.1826668283  14.6182171662  10.7774606303
 O       6.9264569601  12.3443016437  10.9572623118
 O       9.2210438562  10.5231454342  10.4546392851
 O      11.7634933465  11.4690350563  11.6117897464
 O      11.7706026141   9.4688979615  13.6213378079
 O       9.7087376146  10.9270499900  13.3708439256
 O      11.4609603546  11.4333001332  15.5027590829
 O      10.0091651207   9.7155725425  15.9410581360
 O       9.8404475557   8.2245014872  11.6699960015
 O      11.9322712129   7.3943733269  11.2879908042
 O       7.9690709105   8.6476821921  13.9407580907
 O      14.8609330083   6.8235611841  12.2653516574
 O      10.2044537717   7.1574992468  14.4859317431
 O      12.3953605380   6.5740949700  14.1674240903
 O      14.4352801442   8.8290646111  14.6712199507
 O      13.3212477714  13.4640223993  11.6174183234
 O      13.2127968585  15.4851301983  13.5164862630
 O      15.3314163224  14.0474066793  13.3464020376
 O      13.5894725746  13.5870188512  15.4944076896
 O      15.1139297243  16.6429681382  11.5310040584
 O      13.0042201163  17.4607776194  11.2582999270
 O      17.4731087234  11.9832728470  13.9109765813
 O      18.0378967935  14.6298150253  12.7817422602
 O      14.6894929827  17.8496607052  14.2322761753
 O      16.9918923997  16.3780239932  13.8344712732
 O      14.9224486145  15.4199744234  15.8280801169
 O      10.3322911568  17.9287246668  12.3974752648
 O      10.6110315536  15.8204097170  14.6561282690
 O      12.4165171373  18.1086708276  14.0450588085
 C      14.5570300000  10.8447300000   8.8562200000
 C      15.8953878641   6.9369753690  11.5728649655
 C      18.5810683524  11.3857545195  10.7654087713
 C      10.6088887425  14.1514210747   8.8710207608
 C       7.6852547757  14.1645307527  14.1239674620
 C       9.2834701227  17.9110932631  11.6913175330
 C      10.7381360183  10.6726484343  16.2606954678
 C      10.7310168324   7.5988682733  10.9902247955
 C       7.0179732197   9.2671815654  13.3877174747
 C      11.2367957483   6.4002225182  14.5990661290
 C      14.2576652518  14.4311961310  16.2043360326
 C      14.1782636502  17.2224403711  10.8768662755
 C      17.2186832729  10.7993444911  14.2618378135
 C       6.6008411286  13.5075342847  10.5850693994
 C      17.9935767845  15.7189390666  13.4186409853
 C      13.5828532883  18.4405518203  14.4079181142
 H      14.3161326649  10.9290456342   7.7744163316
 H      10.8337272724  14.0763072355   7.7858605172
 H       7.2915775366  14.4518273349  15.1251928460
 H      10.3833846819   7.1959275793  10.0110414006
 H       6.0073713805   8.8469591981  13.5665550345
 H      11.0288342552   5.4642472267  15.1640287057
 H      14.4465891795  17.5531855895   9.8481653370
 H      15.8039730348  15.3051903438  10.7109413574
 H      15.2053842704  13.9560200006  10.2279006700
 H       9.3014289223   9.5828335808  10.7818645637
 H      10.1539080881  10.8337614506  10.4658163330
 H      15.3353865036   9.1150260006  14.3534776401
 H      13.9790215387   9.6685572502  14.8731273153
 H       9.6675036885  15.6953245374  14.3614789170
 H      10.9556921175  14.9005840971  14.6748134975
 H      16.4150712396   6.0037287856  11.2637993275
 H      19.5615032800  11.3324183674  10.2487582141
 H       8.8370386292  18.9043227755  11.4836847309
 H      10.8150987717  10.9551903202  17.3329381496
 H      14.2054076301  14.2115782433  17.2919194392
 H      17.5003057761  10.5217070141  15.3029815816
 H       5.6571078564  13.5668231936  10.0052217215
 H      18.9777162035  16.1775855349  13.6426528990
 H      13.6430106885  19.4007812317  14.9596688671
