CRYSTAL
PRIMVEC
  25.0000000000   0.0000000000   0.0000000000
   0.0000000000  25.0000000000   0.0000000000
   0.0000000000   0.0000000000  25.0000000000
PRIMCOORD
  100    1
 Mn     13.7015940000  11.6115215000  11.5137180000
 Mn     11.3702894391  13.4813871885  11.4953550401
 Mn     11.6181234533  11.3450095239  13.4985583111
 Mn     13.4778280339  13.6849777362  13.4712373601
 Mn     16.0625800157  10.0404937579  11.3882637066
 Mn     16.6951523645  13.3176639851  12.1795798704
 Mn      9.0629459291  15.0975247868  11.2690720377
 Mn      8.2024338156  11.8160091082  12.2527228635
 Mn     10.0453387872   9.0140173542  13.6698104257
 Mn     13.3025090859   8.3640833053  12.7489890000
 Mn     15.0573569177  16.0454192218  13.6137500633
 Mn     11.7786452901  16.6836487060  12.8119329505
 O      13.5731180510  11.7726661276  13.4238191468
 O      15.5856334770  11.8863079856  11.5167122267
 O      14.1580667462   9.7598682819  11.6991467198
 O      13.6840895570  11.4941310479   9.5468785721
 O      15.5206032242  10.1655127875   9.2149892464
 O      16.7229181199   9.9920272710  13.5204868627
 O      16.4935176172   8.1086874316  11.2059598587
 O      17.9566374357  10.4076937617  10.8215642687
 O      18.2202043145  12.6780557313  11.0248041063
 O      15.9475580712  14.4757507163  10.3633924161
 O      11.5600409272  13.3066278631  13.4348184034
 O       9.5433908220  13.2727428581  11.4423727869
 O      10.9898518792  15.3466288221  11.6670806310
 O      11.4914781015  13.5820175322   9.5421948434
 O       9.7603945308  15.0186573053   9.1066784436
 O       8.3091267522  15.2252256823  13.3936210711
 O       7.5141588380  13.1323942487  13.8376410841
 O       8.6971577644  17.0681207333  11.0939764083
 O       6.9199720671  10.2054809133  12.8956080903
 O       7.2162388197  14.8257504445  10.5896817136
 O       6.6237388776  12.6503547456  10.9843287041
 O       8.8415923619  10.6166692224  10.4251320129
 O      11.7770004707  11.5436427261  11.5653357803
 O      11.9315115263   9.4848311145  13.4815893866
 O       9.8274291967  10.8910214043  13.3785870090
 O      11.6090006438  11.3711860229  15.4599363098
 O      10.3359589353   9.5107137956  15.8743079014
 O       9.9714813956   8.4086972809  11.5018396576
 O      12.0801671799   7.6427480536  11.0996633748
 O       8.1329062937   8.5813360554  13.9530562154
 O      14.7225123323   7.0377748202  12.1931292066
 O      10.4101347990   7.0904464095  14.1703288410
 O      12.6627086759   6.8002888841  13.8470289790
 O      14.5156320863   8.9382220720  14.6195180971
 O      13.3458242754  13.5221766716  11.5567680194
 O      13.2192541748  15.5609941711  13.4487045134
 O      15.3431914418  14.1358141629  13.3004497434
 O      13.5809169082  13.6672077789  15.4361102463
 O      15.1494842115  16.7647447030  11.5045994411
 O      13.0372787332  17.5774478647  11.2349567007
 O      17.5268811853  12.1045022744  13.8068708198
 O      18.0165741895  14.7690220010  12.6536393855
 O      14.6847774235  17.9275726818  14.2089114502
 O      16.9947993052  16.4636139171  13.8113957648
 O      14.9144727565  15.4964119388  15.7837876801
 O      10.3572407448  18.0248495260  12.3521322150
 O      10.6079275498  15.8865270433  14.5822036066
 O      12.4113483076  18.1770254010  14.0221112073
 C      14.5275066599  10.8232695084   8.8380920671
 C      15.8243216341   7.0972291179  11.5797858952
 C      18.5543050102  11.5131880369  10.6602861916
 C      10.7209374466  14.2950698330   8.7851121755
 C       7.7059869224  14.3430644301  14.1038708645
 C       9.3186548616  18.0312533719  11.6231536028
 C      10.9815351909  10.5218598940  16.2088715156
 C      10.8878051191   7.8942360843  10.7776058206
 C       7.0547546326   9.1632554089  13.5723281333
 C      11.5079728163   6.4699261379  14.2529981642
 C      14.2412766784  14.5115511663  16.1536190343
 C      14.2161926417  17.3634462870  10.8601150690
 C      17.2830328074  10.9312602410  14.1864776741
 C       6.4490895646  13.7966515217  10.5217034697
 C      17.9866250307  15.8316595394  13.3384299649
 C      13.5732747135  18.5115948601  14.3900666103
 H      14.3028349679  10.8660391049   7.7511722361
 H      10.9969156101  14.2141731742   7.7113300205
 H       7.3131940990  14.7080919310  15.0807947707
 H      10.5932978870   7.6370757677   9.7348386326
 H       6.1319747746   8.6376462210  13.9018251550
 H      11.4600964084   5.4804313348  14.7523868799
 H      14.4971303418  17.7337859131   9.8484239430
 H      15.7848683510  15.4149229220  10.6566498353
 H      15.0412358062  14.1057918865  10.3021572922
 H       9.1747043082   9.7306099840  10.7385411212
 H       9.6486559928  11.1002906107  10.1659090698
 H      15.4137817095   9.2572032116  14.3219131755
 H      14.0460323742   9.7548839751  14.8776014798
 H       9.6674898304  15.7886778947  14.2593277868
 H      10.9283912992  14.9579876565  14.5953214353
 H      16.2850499997   6.1186505986  11.3371659841
 H      19.5219970507  11.4522057443  10.1223327088
 H       8.8918994322  19.0368635907  11.4328620937
 H      11.0669918585  10.7707108001  17.2888395809
 H      14.1726157286  14.2947001207  17.2408674409
 H      17.5888699225  10.6669426375  15.2236896620
 H       5.5038053239  13.9949279159   9.9693160652
 H      18.9755645289  16.2854014256  13.5498909866
 H      13.6304142910  19.4653262984  14.9530061388
