CRYSTAL
PRIMVEC
  25.0000000000   0.0000000000   0.0000000000
   0.0000000000  25.0000000000   0.0000000000
   0.0000000000   0.0000000000  25.0000000000
PRIMCOORD
  100    1
 Mn     13.6594135984  11.6450437761  11.2779223834
 Mn     11.4003187934  13.5024041477  11.3751696859
 Mn     11.6518043628  11.3899383913  13.4877531335
 Mn     13.5354852565  13.6877624723  13.2921930690
 Mn     15.9932836302  10.0412689760  11.1739209020
 Mn     16.7106168347  13.2971383351  11.9326059796
 Mn      9.0419670385  15.0893354671  11.3898185919
 Mn      8.4247261440  11.7502686864  12.0611225336
 Mn     10.0036755824   9.0608380429  13.5390814215
 Mn     13.2337800108   8.3941643917  12.5939558048
 Mn     15.1114920858  16.0393288440  13.4194675507
 Mn     11.7953605153  16.6920163128  12.7758989160
 O      13.6028038144  11.7835786844  13.2000034708
 O      15.5678107517  11.8984787052  11.2812291517
 O      14.0801991646   9.7831783082  11.4810572355
 O      13.7016710149  11.5768482136   9.2973202241
 O      15.4817579755  10.1661056577   8.9946672091
 O      16.6549239154  10.0004329718  13.3111043286
 O      16.4011247832   8.1017639773  11.0061496707
 O      17.9055739295  10.3593184896  10.6118561438
 O      18.2151155851  12.6278496568  10.7650425141
 O      15.9975857828  14.5052930591  10.1192919957
 O      11.6245626541  13.3370632207  13.3125472602
 O       9.5410786525  13.2550144282  11.4717273640
 O      10.9565798162  15.3846780389  11.6442339854
 O      11.3881826878  13.7479781729   9.4218214225
 O       9.5204966679  15.0557332151   9.1939873812
 O       8.3620618011  15.0835585305  13.5128144009
 O       7.5234780404  12.9687059030  13.6681587489
 O       8.5914249584  17.0325755754  11.2910667908
 O       7.0720686417  10.2842451174  12.4393419109
 O       7.1476006999  14.7104080700  10.8188101505
 O       6.9371052639  12.4250125661  10.8728432953
 O       9.2896909907  10.7007321612  10.2650700255
 O      11.7693650212  11.6402310240  11.2325457908
 O      11.8813562934   9.4910448776  13.3782487820
 O       9.7162321610  10.9434986409  13.2080633342
 O      11.4509106258  11.3093718419  15.6172869734
 O      10.0742436082   9.4886599150  15.6917809171
 O       9.8929488196   8.3309647376  11.3787335080
 O      12.0107137530   7.5884513679  10.9802739173
 O       8.0562844248   8.6165474740  13.6665190094
 O      14.6375748453   7.0549427312  12.0303287468
 O      10.3428149294   7.1431383801  14.0476735354
 O      12.5919280737   6.8208113266  13.7191073450
 O      14.5011917179   8.8915778848  14.4362433378
 O      13.3354793434  13.5760663976  11.3740117726
 O      13.2683920497  15.5680603272  13.3271224346
 O      15.3878088951  14.1392416795  13.0681017492
 O      13.6933394731  13.6143223618  15.2491965552
 O      15.0969684981  16.7480708005  11.3042767513
 O      12.9845630301  17.5916142655  11.1468389432
 O      17.5435346797  12.0828226642  13.5599363231
 O      18.0554872806  14.7345879374  12.3931806062
 O      14.7622213134  17.9167390257  14.0504308970
 O      17.0560271673  16.4534544541  13.5381147010
 O      15.0328910050  15.4408399120  15.5908671001
 O      10.3309827274  18.0331257971  12.4005550336
 O      10.7048007644  15.8434336958  14.5888614329
 O      12.4821202600  18.1718064684  13.9664733685
 C      14.5344382653  10.8815994022   8.6020068487
 C      15.7311458473   7.0998534737  11.4024589072
 C      18.5239921599  11.4482446162  10.4246323389
 C      10.5151334727  14.4332885563   8.7659324588
 C       7.7599084892  14.1209854908  14.1083438292
 C       9.2371811556  18.0138882767  11.7649533751
 C      10.7249447268  10.4445702685  16.2031424866
 C      10.7987576144   7.7580380820  10.6839845615
 C       7.0831150185   9.2283641906  13.1359247621
 C      11.4372031561   6.5100900145  14.1300511388
 C      14.3742944513  14.4466245715  15.9627338725
 C      14.1337025438  17.3436928734  10.7039553609
 C      17.2496831415  10.9284091026  13.9615151667
 C       6.5831677607  13.6017823012  10.5746354502
 C      18.0374989119  15.8083139094  13.0592990172
 C      13.6611049561  18.4992431317  14.2864687635
 H      14.3504627355  10.9582499437   7.5087114812
 H      10.7150960114  14.4415402322   7.6729292716
 H       7.4050247640  14.3461785104  15.1395935202
 H      10.4736395824   7.3654395074   9.6932389392
 H       6.0905636908   8.7612892820  13.3008726141
 H      11.3710031497   5.5251339209  14.6373109865
 H      14.3546025210  17.6802140720   9.6655323532
 H      15.7567021449  15.4187468543  10.4416050036
 H      15.1288116654  14.0840360285   9.9609023589
 H       9.3563419698   9.7447629923  10.5301431872
 H      10.2285640937  11.0120464836  10.3272584791
 H      15.3720327104   9.2734451687  14.1264564085
 H      14.0155083475   9.6460942141  14.8188253238
 H       9.7503551835  15.7052614806  14.3380081896
 H      11.0643725390  14.9289504849  14.5598963681
 H      16.1830173022   6.1149613241  11.1673534943
 H      19.4883792682  11.3571111121   9.8839053973
 H       8.7673032535  19.0056198921  11.6062860934
 H      10.6597647296  10.5440227510  17.3108938588
 H      14.3394026026  14.2066859777  17.0464651026
 H      17.5409156331  10.6720246528  15.0053230765
 H       5.6265014198  13.6744624116  10.0174482459
 H      19.0307762474  16.2636399283  13.2474686929
 H      13.7440099861  19.4466649067  14.8573409037
