CRYSTAL
PRIMVEC
  35.0000000000   0.0000000000   0.0000000000
   0.0000000000  35.0000000000   0.0000000000
   0.0000000000   0.0000000000  35.0000000000
PRIMCOORD
  260    1
 Mn     16.3405124839  18.5050462499  18.3811639310
 Mn     18.6265203579  18.5698002533  16.6194730276
 Mn     18.4960539793  16.4074950143  18.5975075401
 Mn     16.5492405075  16.3923951453  16.4662469802
 Mn     14.3235799244  20.5174504600  18.1757655594
 Mn     17.3985445942  21.7487075334  17.4686589393
 Mn     20.5211675286  20.6792772085  16.7094430264
 Mn     21.8862310862  17.5818975572  17.9535087779
 Mn     20.4711191737  14.3837004122  18.8316396510
 Mn     17.5935516442  13.1900603448  17.5117538543
 Mn     14.6226171866  14.2838138907  16.3165317959
 Mn     13.2469844802  17.3659419674  17.1664128211
 O      18.2706048524  18.3746230214  18.5214811960
 O      16.6597549087  18.3231373706  16.4988232561
 O      18.4678372882  16.5973072660  16.6621524759
 O      16.5302794013  16.5771983791  18.3774879645
 O      14.4409536240  18.5877919003  18.0457247519
 O      16.2387535549  20.4100401556  18.2607053273
 O      18.5748231853  20.4681731052  16.6797631400
 O      20.4514423209  18.7870321576  16.9094439856
 O      20.3486316854  16.2713612344  18.6292769484
 O      18.5407177168  14.5066077230  18.5284562574
 O      16.5146516672  14.4856672498  16.5617005288
 O      14.6232529532  16.2185568782  16.4740283612
 O      22.0226042085  16.4889542758  15.9943479520
 O      21.5139970957  18.6798734498  19.8701241665
 O      13.2966723655  18.4572674499  15.1978039158
 O      13.0515978177  16.2659034065  19.1177876111
 O      15.9661437286  18.5071036279  20.3204038626
 O      14.3798934019  20.1486261435  20.3914021331
 O      18.9277946312  18.5201149724  14.6772556542
 O      20.3435697561  20.3020204651  14.4838110662
 O      18.4646035791  16.4631908354  20.5656691523
 O      19.9080227559  14.7456471492  20.9973803047
 O      16.5099975948  16.3916506396  14.4901868105
 O      15.0338011835  14.6817761854  14.1499754432
 O      14.1894585224  22.4698451354  18.5088734753
 O      16.3184497890  23.2456296128  18.2881844428
 O      16.1301617622  21.9417645823  15.6745901850
 O      14.1951101503  20.8030848937  15.9518636844
 O      12.3268503943  20.5704543170  18.2317805183
 O      11.6537714001  18.4582379669  17.7054035053
 O      18.3674465352  23.2995417439  16.6038336622
 O      20.5358946498  22.6508658078  16.3650858451
 O      18.6137090074  22.0365321966  19.2516425467
 O      20.6171753722  21.0256917652  18.9443279311
 O      22.5016585830  20.8437856213  16.5523919557
 O      23.4392847780  18.9791505891  17.4552663262
 O      23.3834842438  16.2807539841  18.7841292618
 O      22.4059921056  14.2919324177  19.2970777516
 O      20.9847145443  14.0993964702  16.6377960792
 O      19.1047471733  13.0328237698  15.9628421070
 O      18.4734989677  11.6666624373  18.4969910700
 O      20.5128659853  12.4104288677  19.1788925156
 O      16.7598239925  11.6674894529  16.4773142345
 O      14.6465465064  12.3305285670  15.9506256753
 O      14.1421503788  13.9648221706  18.4878959500
 O      16.0450133917  12.8780496927  19.0470131681
 O      11.8116125668  16.1957191552  16.3935268028
 O      12.6689928787  14.1378070617  15.9215476254
 C      15.0598681036  19.2286259752  20.9140319211
 C      14.8093889244  18.8775496674  22.3512565358
 C      15.2902634575  17.6792345680  22.9004080345
 C      15.0089975322  17.3424591069  24.2246008299
 C      14.2552233210  18.2301602788  24.9840565749
 C      13.7656540181  19.4300239961  24.4743518987
 C      14.0423682839  19.7445154441  23.1457431085
 C      19.7555414791  19.2915287158  14.0280990202
 C      20.0243453107  18.8782641824  12.6107342886
 C      20.6660856806  19.7797984546  11.7470250473
 C      20.9706704380  19.4126758899  10.4381289038
 C      20.6396977043  18.1264039078  10.0205622137
 C      20.0170574630  17.2025955512  10.8520935916
 C      19.2163179251  15.7331885443  21.3446742222
 C      19.2480554782  16.1687920299  22.7809085555
 C      18.7716601378  17.4286781385  23.1725194783
 C      18.8618752923  17.8380679011  24.5031359387
 C      19.4205599240  16.9619210868  25.4267220928
 C      19.9005299470  15.7035312414  25.0738940516
 C      19.8179694702  15.3159477109  23.7384891788
 C      15.7499202330  15.6366037044  13.7515390757
 C      15.7241081640  15.9901650420  12.2941968739
 C      15.1486456746  15.0914990216  11.3820077895
 C      15.0741070381  15.4068159870  10.0273903355
 C      15.5664224146  16.6406876962   9.6100263152
 C      16.1329495969  17.5597104392  10.4858055310
 C      16.2172774460  17.2215339819  11.8364741381
 C      15.0936668611  23.3718863997  18.5888338676
 C      14.6564837213  24.7149229673  19.0889340325
 C      13.3210461974  24.9330571489  19.4584387398
 C      12.9123333778  26.1785078240  19.9331396463
 C      13.8620802916  27.1908274205  20.0299740685
 C      15.1941505206  27.0096647424  19.6720459604
 C      15.5871080345  25.7594722270  19.1984957485
 C      15.0858552705  21.3974002963  15.2279904814
 C      14.8596298445  21.4480532155  13.7421885754
 C      13.6002000140  21.1889880827  13.1809166997
 C      13.4097330344  21.2459995094  11.7997713463
 C      14.5018620585  21.5533290223  10.9963723718
 C      15.7668393479  21.8127285376  11.5147832391
 C      15.9352745782  21.7656550926  12.8975119774
 C      11.4501732394  19.6581218706  18.0812380799
 C      10.0280888444  20.0357105899  18.3637718472
 C       9.0172507192  19.0636501431  18.3140190697
 C       7.6918486762  19.4085385168  18.5716470917
 C       7.4025776126  20.7359859984  18.8730568872
 C       8.3801830936  21.7239834084  18.9357825173
 C       9.7013041203  21.3630072900  18.6795074118
 C      19.5843361903  23.4958998565  16.2909426397
 C      19.9371368428  24.8645279160  15.7890691421
 C      21.2671081001  25.1764524356  15.4699587423
 C      21.6050301780  26.4468067427  15.0064962407
 C      20.5905857778  27.3881598602  14.8658771756
 C      19.2607923600  27.1131109035  15.1691095947
 C      18.9398038345  25.8393961136  15.6362402774
 C      19.7247949212  21.6008261888  19.6702374222
 C      20.0200627398  21.7731158574  21.1362620622
 C      18.9816785676  22.1247281073  22.0129180386
 C      19.2204713005  22.2796242065  23.3775875219
 C      20.5170127391  22.0876259073  23.8446160463
 C      21.5737618302  21.7487432309  23.0076122027
 C      21.3143259048  21.5884023900  21.6460786676
 C      23.4987613814  20.1048452041  16.8930998122
 C      24.8575951993  20.6716716857  16.5854855150
 C      24.9952458108  21.9321482744  15.9864659184
 C      26.2585378456  22.4545320438  15.7099452388
 C      27.3732810218  21.6923010183  16.0423513721
 C      27.2762443072  20.4383827517  16.6362610073
 C      26.0053094633  19.9321346280  16.9059094061
 C      23.4053386481  15.0992243148  19.2192026063
 C      24.7198465531  14.5434032694  19.6946390944
 C      25.8524829555  15.3701445523  19.7257390254
 C      27.0833621920  14.8748436641  20.1551959329
 C      27.1563138794  13.5417214528  20.5448895813
 C      26.0558156873  12.6912413048  20.5261210779
 C      24.8318037192  13.2053726690  20.0987861716
 C      20.2480285028  13.5306214748  15.7507908585
 C      20.7779678106  13.4408520248  14.3445293893
 C      22.1286667575  13.6832594529  14.0532436834
 C      22.6026593048  13.5929990596  12.7439693270
 C      21.7014123980  13.2665511790  11.7372772860
 C      20.3542374918  13.0223875075  11.9852752837
 C      19.9007664250  13.1059554988  13.3007058606
 C      19.6083246813  11.5216922400  19.0521783879
 C      19.9107670986  10.1616363163  19.6065187047
 C      18.9603277948   9.1339232653  19.5096697250
 C      19.2346348522   7.8656409609  20.0188363985
 C      20.4698178291   7.6504125052  20.6219548674
 C      21.4345513687   8.6461780923  20.7376813271
 C      21.1444314986   9.9093940528  20.2242736220
 C      15.6025607134  11.4814442731  15.9949866949
 C      15.3198994784  10.1260926387  15.4224500990
 C      16.3134955431   9.1355402445  15.4451836535
 C      16.0620816685   7.8701126592  14.9181895933
 C      14.8064877619   7.6200790991  14.3735049816
 C      13.7989527497   8.5788548654  14.3328572679
 C      14.0660432610   9.8398219567  14.8630088220
 C      14.9309434616  13.3890742061  19.3355283799
 C      14.4880877731  13.3221979482  20.7707007912
 C      13.1512660192  13.5332359390  21.1401965552
 C      12.7626357496  13.4686297338  22.4788865137
 C      13.7353343106  13.2002928952  23.4353100296
 C      15.0714389923  12.9888457690  23.1092749537
 C      15.4389612649  13.0444209721  21.7657926949
 C      11.7330942599  15.0012331853  15.9569172420
 C      10.3946948010  14.5658258949  15.4433510973
 C      10.1872653290  13.2315662687  15.0624796566
 C       8.9426615198  12.8152970357  14.5940653217
 C       7.9216768249  13.7570456366  14.5088430995
 C       8.0951629546  15.0903210553  14.8673069862
 C       9.3434075083  15.4893807764  15.3410922335
 C      19.7009968094  17.5919508235  12.1538178256
 F       6.1028943928  21.0822408295  19.1181488454
 F       6.6970628189  13.3548182938  14.0525768600
 F      14.5520759755   6.3801715076  13.8548309098
 F      13.3631311116  13.1414947795  24.7513605602
 F      20.7469945809   6.4076441096  21.1236965030
 F      13.9794620997  17.9133779319  26.2860281696
 F      19.5071631210  17.3509635448  26.7349741415
 F      20.7604881528  22.2398234651  25.1836200954
 F      13.4688225834  28.4139991060  20.4988852386
 F      20.9148155465  28.6369372820  14.4098251440
 F      28.6183312649  22.1974707385  15.7734951521
 F      28.3620581073  13.0441532308  20.9645299385
 F      14.3256694452  21.6038477819   9.6398129777
 F      20.9449159006  17.7569351979   8.7392066191
 F      22.1568459072  13.1805111906  10.4485469556
 F      15.4856533145  16.9593123786   8.2823468164
 H       9.2880549804  18.0351155125  18.0773777309
 H       6.8906544841  18.6705965615  18.5443427720
 H       8.1005408989  22.7481896730  19.1811486510
 H      10.4970510375  22.1058920249  18.7165220597
 H      11.0150136145  12.5282520756  15.1430935523
 H       8.7554862687  11.7834750100  14.2975337186
 H       7.2658365351  15.7907393549  14.7718049458
 H       9.5224025495  16.5241622762  15.6312637496
 H      17.2839604917   9.3754396376  15.8783062486
 H      16.8185733527   7.0858231978  14.9226553993
 H      12.8328036761   8.3325600135  13.8926826537
 H      13.3064349125  10.6206404819  14.8499859659
 H      16.4733384368  12.8794662820  21.4635063310
 H      15.7986594376  12.7861000126  23.8955422964
 H      11.7287644062  13.6272361315  22.7845242639
 H      12.4097297982  13.7449092731  20.3700548446
 H      21.8692544307  10.7195485425  20.2953756533
 H      22.3866142309   8.4262184550  21.2203049165
 H      18.5119118384   7.0520844108  19.9559639550
 H      18.0035092925   9.3471660286  19.0336101702
 H      15.8851152497  17.0114259453  22.2779919736
 H      15.3664709148  16.4134073098  24.6675634773
 H      13.1782804877  20.0902680475  25.1121279768
 H      13.6660534457  20.6657313684  22.7014567262
 H      18.3359206546  18.0893792517  22.4236559127
 H      18.5089258657  18.8173145225  24.8261306667
 H      20.3358161777  15.0559735192  25.8349400177
 H      20.2021979193  14.3497367454  23.4123576397
 H      22.1227322335  21.3178338001  20.9672724516
 H      22.5722263426  21.6094058007  23.4214332758
 H      18.4256037453  22.5456490465  24.0741799334
 H      17.9823721140  22.2703823254  21.6024777466
 H      12.6108799196  24.1113443711  19.3711269597
 H      11.8811874422  26.3722923689  20.2282447447
 H      15.8997029593  27.8341868303  19.7690790859
 H      16.6217913698  25.5724922171  18.9121403245
 H      22.0286595745  24.4071300888  15.5932022587
 H      22.6318557190  26.7131126536  14.7562984087
 H      18.5029702876  27.8851290890  15.0377700114
 H      17.9105445006  25.5808129918  15.8842039834
 H      24.0948045515  22.4946240730  15.7412028770
 H      26.3893895219  23.4323329219  15.2470707771
 H      28.1812764017  19.8812103484  16.8774459796
 H      25.8792303137  18.9533044669  17.3684896152
 H      25.7473921882  16.4080053510  19.4085978334
 H      27.9749150718  15.5004158740  20.1909582720
 H      26.1668437841  11.6532735415  20.8404337903
 H      23.9431084143  12.5757288213  20.0682512462
 H      16.9070091820  21.9707887857  13.3470391304
 H      16.5924325897  22.0471468262  10.8428029185
 H      12.4380475902  21.0532992314  11.3457418198
 H      12.7623196720  20.9459667542  13.8338564676
 H      20.9282831681  20.7681272303  12.1246724555
 H      21.4647349445  20.0968552823   9.7484832970
 H      19.7905061999  16.2027607241  10.4832504568
 H      19.2075902770  16.8953772746  12.8312795701
 H      22.8123977311  13.9423919635  14.8613259450
 H      23.6487219549  13.7750992841  12.4988471688
 H      19.6857659689  12.7706801437  11.1619622102
 H      18.8551480980  12.9151963050  13.5418507717
 H      16.6631436412  17.9143823049  12.5496627040
 H      16.4990894505  18.5150745667  10.1111555409
 H      14.6395400703  14.7223940976   9.2992743239
 H      14.7583843402  14.1453354553  11.7563173216
 H      21.3443280152  16.9383405211  15.4572688205
 H      21.6623415165  15.5664845965  16.1595750687
 H      14.0139533695  18.0258325084  14.6996295470
 H      13.6284591381  19.3936231328  15.3869501776
 H      13.4401235734  15.3434588242  18.9734677944
 H      13.6731210186  16.7124841427  19.7204684145
 H      20.7270408684  18.2411214339  20.2419079259
 H      21.2018047423  19.5961215716  19.6016779842
