CRYSTAL
PRIMVEC
  35.0000000000   0.0000000000   0.0000000000
   0.0000000000  35.0000000000   0.0000000000
   0.0000000000   0.0000000000  35.0000000000
PRIMCOORD
  260    1
 Mn     16.3494124070  18.5063453729  18.3616977348
 Mn     18.6152634533  18.5208237069  16.6208077881
 Mn     18.5056234883  16.4187370352  18.5939604095
 Mn     16.5229157195  16.3639999512  16.4367981781
 Mn     14.3371434275  20.5200480028  18.1540881526
 Mn     17.4063352994  21.7292104619  17.4242377809
 Mn     20.5361198258  20.6269474860  16.7722690568
 Mn     21.7443187049  17.5473576189  17.8886303793
 Mn     20.4981029990  14.4170296283  18.8479715293
 Mn     17.5914001874  13.0229167579  17.5240258642
 Mn     14.6120280843  14.2780336461  16.2152047386
 Mn     13.2475262691  17.3478344275  17.1911573787
 O      18.2676595709  18.3973471877  18.5046059758
 O      16.6999359977  18.3483527371  16.4834640947
 O      18.4679841262  16.5836287563  16.6570968316
 O      16.5538301264  16.5730307860  18.3715590987
 O      14.4672100822  18.5992183371  18.0056685615
 O      16.2575871476  20.4227728243  18.2524281400
 O      18.6265874554  20.4395781665  16.6733180946
 O      20.4947538256  18.7017465713  16.9788543919
 O      20.4139714214  16.3731651228  18.5903712297
 O      18.6334030391  14.5756431257  18.5779798317
 O      16.4674728298  14.5186837308  16.4809415437
 O      14.6129089950  16.2420290194  16.4456838327
 O      21.9902531896  16.3825737603  15.9875288775
 O      21.6494451978  18.7324012577  19.8154810845
 O      13.1653426682  18.4944188263  15.2323658836
 O      13.1801664036  16.2300729862  19.1271642269
 O      15.9527094445  18.4963849289  20.2994809553
 O      14.3783412875  20.1492895181  20.3677731061
 O      19.0151540270  18.4736821582  14.6850963106
 O      20.5326718522  20.1764452655  14.5747384371
 O      18.5170312684  16.5396640290  20.5601105184
 O      20.1137840443  14.9681629340  21.0085670978
 O      16.5093287755  16.4501191868  14.4723121965
 O      14.9596846713  14.8261426748  14.0467869377
 O      14.2035904764  22.4739248735  18.4899340571
 O      16.3252379227  23.2498833720  18.2037179166
 O      16.1898281625  21.8879721702  15.6118766379
 O      14.2262173802  20.8104494163  15.9300927083
 O      12.3424241051  20.5627933736  18.1953263134
 O      11.6712801718  18.4158527568  17.8279715824
 O      18.4114988264  23.2540195521  16.5591459778
 O      20.5752909633  22.5728023950  16.3585012709
 O      18.6122089545  22.0510345216  19.2254781205
 O      20.6060197773  21.0094857205  18.9817021267
 O      22.5252017264  20.7659478983  16.7417102568
 O      23.2860234870  18.6915881940  17.3001067759
 O      23.2240992858  16.4837902782  18.7171113952
 O      22.4770911816  14.3885341163  19.2157403721
 O      21.0091110358  14.0562301783  16.6706468992
 O      19.1758513505  12.8847466030  16.0415805358
 O      18.6298990999  11.5110515755  18.7023958492
 O      20.5738127045  12.4994819049  19.3487628804
 O      16.6263984606  11.4676762741  16.3356898274
 O      14.6219078720  12.3557738996  15.7294222373
 O      14.1403397004  13.9060586968  18.3992157208
 O      16.0194537424  12.7972068890  19.0092267806
 O      11.7908333999  16.1825976703  16.4604328005
 O      12.6350294465  14.1547723431  15.8540546639
 C      15.0365647400  19.2110659711  20.8866155048
 C      14.7462789822  18.8275576081  22.3075723263
 C      15.2070566555  17.6136617267  22.8401194069
 C      14.8843649910  17.2446393144  24.1460169912
 C      14.1106797464  18.1155275629  24.9051994983
 C      13.6404540000  19.3297012730  24.4117243322
 C      13.9574242965  19.6761901745  23.1002638356
 C      19.9081823481  19.2021276642  14.0809403855
 C      20.2151321092  18.7902663647  12.6714886582
 C      20.9690755269  19.6475879326  11.8545582628
 C      21.2953209732  19.2796136099  10.5512698576
 C      20.8707471967  18.0357713005  10.0913397372
 C      20.1342571438  17.1552906232  10.8758575063
 C      19.3192665934  15.8786649190  21.3469003344
 C      19.2851491440  16.3038288756  22.7864063639
 C      18.6876178078  17.5120642053  23.1746450596
 C      18.7131959559  17.9187522850  24.5088893013
 C      19.3305262767  17.0900180711  25.4388343905
 C      19.9272997098  15.8811818414  25.0909507027
 C      19.9077992117  15.4973158986  23.7518905760
 C      15.7263122610  15.7558782859  13.6957712495
 C      15.7497942059  16.1627170926  12.2505068586
 C      15.1534585955  15.3255722665  11.2944398129
 C      15.1347075180  15.6872019306   9.9491036316
 C      15.7052205770  16.9039893038   9.5853982289
 C      16.2921926371  17.7641731055  10.5064561594
 C      16.3176039605  17.3804013386  11.8473513006
 C      15.1061817778  23.3778326400  18.5344781537
 C      14.6779470591  24.7277287635  19.0226962466
 C      13.3458638750  24.9548342765  19.3998788069
 C      12.9431707291  26.2084673012  19.8565938227
 C      13.8952429438  27.2205582793  19.9290332316
 C      15.2250808037  27.0306283921  19.5668584736
 C      15.6114887174  25.7716983232  19.1102433639
 C      15.1107240988  21.3888724136  15.1906901053
 C      14.8347095966  21.4878918546  13.7150918588
 C      13.5575294699  21.2392912224  13.1901357259
 C      13.3178795386  21.3418972270  11.8195085794
 C      14.3776467552  21.6887840212  10.9891005160
 C      15.6581829917  21.9418664499  11.4716180879
 C      15.8768093478  21.8448201875  12.8446127084
 C      11.4695568299  19.6342970089  18.1343495572
 C      10.0559971081  20.0197578182  18.4446103386
 C       9.0484301473  19.0434852025  18.4658425228
 C       7.7304210579  19.3938112751  18.7528803472
 C       7.4448011759  20.7311007061  19.0098623621
 C       8.4184971385  21.7251070150  18.9959068591
 C       9.7327327021  21.3581552353  18.7132853812
 C      19.6292905505  23.4248861674  16.2445643518
 C      19.9992750215  24.7653549984  15.6864815782
 C      21.3227840093  25.0325002475  15.3057662098
 C      21.6719509850  26.2767303088  14.7837794720
 C      20.6753931364  27.2386625953  14.6513305449
 C      19.3526078200  27.0078381268  15.0158070943
 C      19.0196583507  25.7588438888  15.5369399447
 C      19.6954778898  21.5952487354  19.6834639010
 C      19.9437331530  21.7546375322  21.1585619159
 C      18.8762885108  22.1039991012  22.0008338355
 C      19.0685488433  22.2513173494  23.3734044243
 C      20.3486647080  22.0569398162  23.8834833533
 C      21.4326676996  21.7190764225  23.0812707983
 C      21.2191822744  21.5645304315  21.7113302970
 C      23.4396469627  19.8920270904  16.9066058230
 C      24.8442350189  20.3253685871  16.6189012886
 C      25.1151046815  21.6568981870  16.2699872051
 C      26.4204267148  22.0676635897  16.0061175005
 C      27.4387229013  21.1232679915  16.0925127652
 C      27.2062753160  19.7941740976  16.4322223697
 C      25.8964066116  19.4002019455  16.6987002547
 C      23.3642961426  15.2961329880  19.1659515385
 C      24.7269864681  14.9387050671  19.6779705237
 C      25.7272452209  15.9170000658  19.7791066128
 C      26.9936166033  15.5868791366  20.2591924591
 C      27.2371922424  14.2665043194  20.6243627898
 C      26.2698510501  13.2705281855  20.5345211018
 C      25.0061905631  13.6183002299  20.0605438785
 C      20.2865604366  13.4237465885  15.8044383928
 C      20.8150505604  13.3229315337  14.3971872310
 C      22.1566617426  13.5938226553  14.0900757884
 C      22.6233128938  13.4904042020  12.7787814364
 C      21.7226188550  13.1219960939  11.7860001941
 C      20.3844749615  12.8473341715  12.0502441210
 C      19.9390401097  12.9433210789  13.3677000446
 C      19.7571108496  11.5029853422  19.2532461520
 C      20.2423913713  10.2182992946  19.8697509959
 C      19.4504391118   9.0651544728  19.7706957313
 C      19.8784125684   7.8584418165  20.3232564422
 C      21.1068380310   7.8320412250  20.9749005864
 C      21.9169601206   8.9558261117  21.0978717379
 C      21.4738025820  10.1538864533  20.5373766470
 C      15.4940579978  11.4054394724  15.7988607274
 C      15.0743539296  10.1065538634  15.1641758984
 C      15.9311538501   8.9984154757  15.2322581052
 C      15.5697287707   7.7824250055  14.6531417275
 C      14.3409865873   7.7009246582  14.0066177716
 C      13.4662238423   8.7782875040  13.9160595563
 C      13.8437002090   9.9862510671  14.5030043537
 C      14.8934283472  13.2979875972  19.2575580411
 C      14.3837808851  13.1836023816  20.6706314166
 C      13.0375737829  13.4137554244  20.9899773745
 C      12.5879809733  13.3060131819  22.3066711242
 C      13.5102803826  12.9746126067  23.2926403803
 C      14.8534491931  12.7392481956  23.0161787317
 C      15.2818333713  12.8386086769  21.6932468539
 C      11.6996794696  15.0052809995  15.9732738381
 C      10.3391870039  14.5870558977  15.5030096227
 C      10.1144163684  13.2622540694  15.0992860932
 C       8.8533526519  12.8593688965  14.6640211951
 C       7.8334450849  13.8052752821  14.6337490092
 C       8.0216319560  15.1281812865  15.0209208185
 C       9.2865576567  15.5135190559  15.4619693332
 C      19.8005253071  17.5457334372  12.1726847055
 F       6.1537247205  21.0840324797  19.2891690948
 F       6.5934324389  13.4186487849  14.2043881616
 F      13.9773550834   6.5096141188  13.4329387075
 F      13.0787885217  12.8731815674  24.5894222063
 F      21.5374618402   6.6498008714  21.5196950240
 F      13.7948145977  17.7673349780  26.1894272519
 F      19.3555248118  17.4777650048  26.7506954666
 F      20.5496116402  22.2069390734  25.2290217803
 F      13.5077089260  28.4529281248  20.3777340275
 F      21.0096960489  28.4618616043  14.1391794300
 F      28.7215837327  21.5185468553  15.8321912792
 F      28.4791155219  13.9344847618  21.0920409209
 F      14.1515635681  21.7880038562   9.6430214217
 F      21.1954767946  17.6671215708   8.8151884134
 F      22.1707367411  13.0236682906  10.4948607314
 F      15.6846236718  17.2668001669   8.2664199073
 H       9.3156629989  18.0074463271  18.2593690088
 H       6.9322113131  18.6525410511  18.7808646876
 H       8.1413029059  22.7583050216  19.2031580531
 H      10.5267598627  22.1039462962  18.6921694023
 H      10.9426908051  12.5552455439  15.1372090289
 H       8.6536196085  11.8348023748  14.3517596266
 H       7.1908287849  15.8314806986  14.9722618159
 H       9.4770248898  16.5403089021  15.7731968468
 H      16.8852448028   9.1123510377  15.7471950178
 H      16.2202661937   6.9090952856  14.6951753740
 H      12.5159412098   8.6626373802  13.3950892813
 H      13.1897303450  10.8566126543  14.4539911636
 H      16.3224380691  12.6515454314  21.4275695612
 H      15.5379881052  12.4813114814  23.8241460653
 H      11.5454979221  13.4780796409  22.5733394767
 H      12.3371270418  13.6746601468  20.1970523403
 H      22.0763589112  11.0590354519  20.6110803368
 H      22.8698487393   8.8820808866  21.6217047521
 H      19.2795169892   6.9504302558  20.2555185150
 H      18.4944501265   9.1359415141  19.2514738958
 H      15.8180792652  16.9580752237  22.2197673952
 H      15.2234213698  16.3020057592  24.5743517748
 H      13.0351474208  19.9753350899  25.0476493515
 H      13.5943427715  20.6080210042  22.6671471727
 H      18.2070046591  18.1331264356  22.4190711228
 H      18.2640392872  18.8580308367  24.8302756329
 H      20.3990117686  15.2679228860  25.8585349327
 H      20.3788706710  14.5683202107  23.4312955366
 H      22.0507399408  21.2971440039  21.0600594668
 H      22.4161129270  21.5782007735  23.5287999055
 H      18.2499818126  22.5130974122  24.0437348401
 H      17.8919852698  22.2537461554  21.5572710435
 H      12.6336134439  24.1333490225  19.3305060671
 H      11.9148120072  26.4089210849  20.1557119646
 H      15.9332622224  27.8550428773  19.6472670328
 H      16.6437992139  25.5786546858  18.8194542321
 H      22.0710947424  24.2493995029  15.4237795240
 H      22.6927717425  26.5076239220  14.4802279875
 H      18.6088327321  27.7938203045  14.8879109421
 H      17.9947199213  25.5341811330  15.8311324832
 H      24.2873322465  22.3630118690  16.2117699260
 H      26.6564858756  23.0967589924  15.7370533491
 H      28.0385127801  19.0925518514  16.4816530529
 H      25.6698813887  18.3681549609  16.9655392889
 H      25.4948773077  16.9396351712  19.4832444900
 H      27.7842001194  16.3307225929  20.3551471362
 H      26.5113023057  12.2503596544  20.8321166897
 H      24.2181784040  12.8706519442  19.9753026917
 H      16.8619042685  22.0423648850  13.2673518202
 H      16.4569453528  22.2093906650  10.7799396141
 H      12.3326233660  21.1549503439  11.3932763718
 H      12.7445149528  20.9687780010  13.8634131243
 H      21.2970512312  20.6034678551  12.2625967680
 H      21.8733016562  19.9313082377   9.8964151198
 H      19.8318986276  16.1890566106  10.4733707806
 H      19.2175498834  16.8832328218  12.8122375440
 H      22.8411886504  13.8826188723  14.8874056230
 H      23.6628186993  13.6928862950  12.5219574822
 H      19.7169781096  12.5617102138  11.2372950089
 H      18.9022114441  12.7254302136  13.6246374751
 H      16.7759698560  18.0255244233  12.5965542214
 H      16.7197734548  18.7093497151  10.1734772522
 H      14.6849522007  15.0499760598   9.1878986597
 H      14.7041691585  14.3900238961  11.6272752159
 H      21.3628856196  16.7651991765  15.3481646010
 H      21.6440462387  15.4456134423  16.1687353695
 H      13.7963060460  18.0287020134  14.6548307537
 H      13.5677923000  19.4049251441  15.3937626029
 H      13.5121491298  15.2923578637  18.9279559306
 H      13.8705966442  16.6254673431  19.6900737331
 H      20.9717755711  18.2763066677  20.3461971686
 H      21.2561454511  19.6346795262  19.5971603118
