CRYSTAL
PRIMVEC
  35.0000000000   0.0000000000   0.0000000000
   0.0000000000  35.0000000000   0.0000000000
   0.0000000000   0.0000000000  35.0000000000
PRIMCOORD
  260    1
 Mn     16.3607004274  18.5269593084  18.4515204696
 Mn     18.6490483191  18.5734296248  16.7159431994
 Mn     18.4585728944  16.4658174882  18.6587801741
 Mn     16.5809679561  16.4215233712  16.3423286671
 Mn     14.3685327943  20.5562262253  18.1264517298
 Mn     17.4284814731  21.7853022177  17.4994203270
 Mn     20.5766636608  20.6678123454  16.8922256644
 Mn     21.7505991290  17.5789217394  18.0227730210
 Mn     20.4808317579  14.4379727046  18.7338442087
 Mn     17.5704329335  13.2290309040  17.4885624421
 Mn     14.6258634021  14.3102003404  16.2915534754
 Mn     13.2734822819  17.3735904050  17.1623816496
 O      18.3021376489  18.4141734427  18.6059121842
 O      16.7354071801  18.3806953011  16.5566770405
 O      18.5092849904  16.6470050418  16.7359219814
 O      16.5804641710  16.6525298423  18.6140251532
 O      14.4889129320  18.6208538519  18.0512825956
 O      16.2768557993  20.4724050561  18.2792797378
 O      18.6731730732  20.4851807721  16.7949861000
 O      20.5370922485  18.7370835767  17.0671640823
 O      20.4146206135  16.3623573695  18.6253730825
 O      18.5735565653  14.5629911811  18.5068625438
 O      16.5314043847  14.4843297378  16.5011862459
 O      14.6130561345  16.2300421229  16.4797725492
 O      22.1324453642  16.4975689227  16.0826472870
 O      21.5096053651  18.6819300071  19.9697343189
 O      13.3738491562  18.4415359712  15.1770608883
 O      13.1143120331  16.3162488166  19.1373537034
 O      15.9762801891  18.6698520412  20.3943671351
 O      14.3698238533  20.2944687958  20.3500416985
 O      18.9811361839  18.5761457531  14.7798248437
 O      20.5326465305  20.2471534179  14.6771121484
 O      18.5834631293  16.4565756538  20.6448827969
 O      20.0720109336  14.7450521291  20.9166395542
 O      16.2812064817  16.4029153317  14.1814916513
 O      14.9047555727  14.5894775052  14.1219099103
 O      14.2012744239  22.5275414924  18.4078953652
 O      16.3318579379  23.3091790480  18.2629544319
 O      16.2798768674  21.9266876817  15.6459555911
 O      14.3307245460  20.8039894762  15.8886183209
 O      12.3720363209  20.6143296727  18.1142825054
 O      11.6878344719  18.4852411278  17.6871014376
 O      18.4641149165  23.3060047682  16.6667967600
 O      20.6298575442  22.6213287900  16.5093935352
 O      18.6249780815  22.0816405156  19.3253987654
 O      20.6147790981  21.0205225366  19.1132248110
 O      22.5686558929  20.8012275855  16.8608344792
 O      23.3047763731  18.7658446150  17.5729527056
 O      23.2100839111  16.4904384064  18.8771746569
 O      22.4495433715  14.3546469273  19.1024803585
 O      20.9767513214  14.1915474360  16.5543048442
 O      19.1106448827  13.0778540714  15.9317538913
 O      18.4921693635  11.7132565411  18.4507402098
 O      20.5475641680  12.4758728370  19.0578122155
 O      16.7497656868  11.6748879728  16.4683058139
 O      14.6283929079  12.3370985265  15.9805631937
 O      14.1934960403  14.0005058438  18.5116212422
 O      16.1096702988  12.9423626459  19.0786008818
 O      11.8032253753  16.2090742585  16.4126680617
 O      12.6539861267  14.1376211352  15.9922174410
 C      15.0906001977  19.4473674647  20.9379165245
 C      14.9195047960  19.2745909790  22.4229808424
 C      15.3833075112  18.1232686218  23.0741620751
 C      15.1792218324  17.9662660545  24.4462816925
 C      14.5283541545  18.9637320330  25.1776934552
 C      14.0699352420  20.1171333522  24.5313432142
 C      14.2550479803  20.2682498912  23.1574110542
 C      19.8153121974  19.3548098193  14.1558346238
 C      19.9140934022  19.1164682065  12.6752055750
 C      20.6982984939  19.9796302366  11.8944818354
 C      20.8154847447  19.7680762984  10.5211496264
 C      20.1586689191  18.6881561046   9.9210237827
 C      19.3797706705  17.8248786643  10.6969749145
 C      19.3461996577  15.6763960378  21.3502019335
 C      19.3569448053  15.9587439218  22.8282001283
 C      18.8517581248  17.1622682281  23.3393616585
 C      18.9126184085  17.4211706524  24.7097469870
 C      19.4610276723  16.4737638612  25.5787625790
 C      19.9590878835  15.2676349775  25.0732040547
 C      19.9171201300  15.0145610479  23.7025119103
 C      15.5584292815  15.5346697779  13.5785064150
 C      15.4563235932  15.6515528097  12.0753176369
 C      14.9944502059  14.5649237615  11.3174421167
 C      14.8962012220  14.6653113633   9.9291990510
 C      15.2350760297  15.8616078232   9.2871342603
 C      15.6794259639  16.9533304340  10.0395199500
 C      15.8000228404  16.8455837400  11.4265325384
 C      15.0931115721  23.4337915384  18.5104008132
 C      14.6275159353  24.7897879346  18.9639857788
 C      13.2773323190  25.0064480089  19.2733831436
 C      12.8487162074  26.2666454687  19.6912738179
 C      13.7645077355  27.3174229907  19.8041173584
 C      15.1123285677  27.1030452428  19.4992713705
 C      15.5447085105  25.8443791894  19.0806235839
 C      15.2535731092  21.3588475270  15.1804103218
 C      15.0998347407  21.3323616948  13.6818226142
 C      13.8546876904  21.1023602793  13.0777995191
 C      13.7418246736  21.0767158758  11.6867051059
 C      14.8738765552  21.2632975216  10.8878153318
 C      16.1193145048  21.4874109200  11.4838044074
 C      16.2294908826  21.5329655127  12.8734521772
 C      11.4894774716  19.7038099346  17.9923169264
 C      10.0620489007  20.1134792731  18.2193119222
 C       9.0412422270  19.1524346654  18.1812913533
 C       7.7155886115  19.5345815659  18.3858623803
 C       7.4006678062  20.8760608415  18.6236933516
 C       8.4168768829  21.8359467668  18.6610047559
 C       9.7446902144  21.4573452277  18.4628634544
 C      19.6899274083  23.4782775147  16.3903034136
 C      20.0806273429  24.8350109234  15.8757993552
 C      21.4209116690  25.1203795274  15.5782012932
 C      21.7781073682  26.3842524275  15.1079694257
 C      20.8004686407  27.3681148377  14.9292410076
 C      19.4625069610  27.0838994677  15.2197409132
 C      19.1013816995  25.8223255192  15.6924327634
 C      19.6767553696  21.5784808651  19.8038441605
 C      19.8522560282  21.6275034647  21.2998636674
 C      18.7280853583  21.8255433728  22.1163690421
 C      18.8603909679  21.8416821737  23.5046653640
 C      20.1211393054  21.6821899488  24.0898282580
 C      21.2467804050  21.4992701260  23.2816265945
 C      21.1128802677  21.4642189944  21.8926411152
 C      23.4745585229  19.9454711970  17.1270241238
 C      24.8956863554  20.3729398731  16.9022475607
 C      25.1878565186  21.7021009509  16.5650008807
 C      26.5107366212  22.0956704824  16.3635357878
 C      27.5464790677  21.1646080781  16.4894332264
 C      27.2566549029  19.8371218834  16.8199315972
 C      25.9361379915  19.4409869728  17.0299310472
 C      23.3384956053  15.2619417986  19.1879279311
 C      24.6872385250  14.8389633209  19.6964428703
 C      25.6800941837  15.7984288494  19.9429775331
 C      26.9325251685  15.4025071149  20.4124725890
 C      27.2045779649  14.0478485575  20.6288117526
 C      26.2172521482  13.0888728007  20.3807670009
 C      24.9603021696  13.4817366894  19.9206055967
 C      20.2038839224  13.6478836055  15.6744468298
 C      20.6383193755  13.6957092708  14.2332086987
 C      21.9769089451  13.9169296525  13.8771746813
 C      22.3477589157  13.9648249082  12.5320137960
 C      21.3828912916  13.8083574290  11.5328548628
 C      20.0462507421  13.5895893196  11.8821256151
 C      19.6770915297  13.5227811488  13.2251696857
 C      19.6465874321  11.5762147457  18.9557583787
 C      19.9952054432  10.2128551724  19.4817263970
 C      19.0672577326   9.1660613597  19.3791611808
 C      19.3901662144   7.8976309241  19.8610097637
 C      20.6385353924   7.6665109791  20.4471145352
 C      21.5642015965   8.7094024634  20.5531046760
 C      21.2450944614   9.9797337913  20.0730070834
 C      15.5838718274  11.4911465646  16.0032779475
 C      15.2941366109  10.1341064507  15.4245105735
 C      16.2872540287   9.1436032554  15.4251193517
 C      16.0190283282   7.8855841373  14.8851626153
 C      14.7601189100   7.6082943819  14.3430936763
 C      13.7688818328   8.5947392133  14.3401585845
 C      14.0338444286   9.8544454307  14.8777236374
 C      14.9949567290  13.4611748190  19.3627844654
 C      14.5765323975  13.4440291672  20.8107852888
 C      13.2347449112  13.6066932168  21.1854911788
 C      12.8752124424  13.5978766054  22.5342002450
 C      13.8542708497  13.4433719390  23.5200478757
 C      15.1940869549  13.2819404473  23.1524279528
 C      15.5522811607  13.2720475875  21.8043116009
 C      11.7200173316  15.0020552288  16.0168046403
 C      10.3701128304  14.5475519006  15.5371665864
 C      10.1614406649  13.2044553891  15.1929256982
 C       8.9073995779  12.7833376102  14.7504181250
 C       7.8573352781  13.7007712928  14.6420253003
 C       8.0642642203  15.0418591235  14.9798107938
 C       9.3150081755  15.4652853413  15.4294926647
 C      19.2518576368  18.0381337712  12.0704466527
 H       9.3067171867  18.1120563224  17.9942270241
 H       6.9243310219  18.7835143607  18.3595745213
 H       6.3625167702  21.1737789654  18.7809483071
 H       8.1729151604  22.8835183950  18.8458044492
 H      10.5516098430  22.1892988384  18.4892325348
 H      10.9942027205  12.5071976687  15.2802609057
 H       8.7480386574  11.7362179095  14.4869913710
 H       6.8775125169  13.3705045084  14.2916877439
 H       7.2478904691  15.7605224604  14.8909069158
 H       9.4967045046  16.5066487289  15.6955470170
 H      17.2634041791   9.3805087683  15.8483007152
 H      16.7950008156   7.1183138139  14.8850654335
 H      14.5518270618   6.6235843023  13.9202053620
 H      12.7866072677   8.3814386972  13.9150746014
 H      13.2777005585  10.6391077788  14.8813136020
 H      16.5897797014  13.1417298876  21.4960990437
 H      15.9625679437  13.1657586358  23.9189002453
 H      13.5732466828  13.4521323180  24.5750344302
 H      11.8285398229  13.7207175184  22.8174935821
 H      12.4777098934  13.7388728888  20.4124121678
 H      21.9509644296  10.8064552260  20.1491008168
 H      22.5378190583   8.5312660362  21.0131084741
 H      20.8899967351   6.6730327164  20.8230918840
 H      18.6656119677   7.0859732629  19.7794159456
 H      18.0988654186   9.3675826507  18.9212425085
 H      15.8953235444  17.3561041864  22.4932565885
 H      15.5340140912  17.0623649316  24.9438445741
 H      14.3749497665  18.8420644720  26.2517298314
 H      13.5605801917  20.8972592359  25.1003137001
 H      13.8886216768  21.1492613812  22.6302906105
 H      18.4176864581  17.8899878334  22.6539753890
 H      18.5260709959  18.3651654453  25.0968019953
 H      19.5037293478  16.6756656513  26.6509430030
 H      20.3872902986  14.5258551967  25.7499901385
 H      20.3174750330  14.0906242653  23.2847160933
 H      21.9849273628  21.3095265815  21.2573807780
 H      22.2314190717  21.3713954969  23.7342501281
 H      20.2260864117  21.6963816275  25.1764417276
 H      17.9768352771  21.9735023480  24.1319496447
 H      17.7557609912  21.9543915793  21.6403860947
 H      12.5796257572  24.1743298276  19.1827576749
 H      11.7964776277  26.4308905323  19.9313231907
 H      13.4278849798  28.3030947053  20.1307378269
 H      15.8294532837  27.9211287129  19.5889044650
 H      16.5916533952  25.6579885163  18.8421298821
 H      22.1672413566  24.3394576300  15.7216005614
 H      22.8220582012  26.6037494271  14.8774824128
 H      21.0811504752  28.3564437159  14.5606228740
 H      18.6971272915  27.8483950591  15.0761563135
 H      18.0639625732  25.5799466654  15.9222396638
 H      24.3656584641  22.4105472269  16.4683589527
 H      26.7362792447  23.1315558632  16.1049067372
 H      28.5809507204  21.4733959617  16.3278608410
 H      28.0629472459  19.1082259401  16.9143760527
 H      25.6890239989  18.4114497507  17.2889980044
 H      25.4499972276  16.8491193155  19.7669952482
 H      27.6995966864  16.1530596651  20.6106823380
 H      28.1867497798  13.7391351689  20.9921418547
 H      26.4282530454  12.0310761913  20.5473941983
 H      24.1763244129  12.7507647813  19.7238726829
 H      17.1898587595  21.7127249066  13.3567013262
 H      17.0082180125  21.6224846135  10.8651344528
 H      14.7858818039  21.2304976853   9.7999194829
 H      12.7689513500  20.9013177282  11.2248016030
 H      12.9772442079  20.9448352174  13.7051302811
 H      21.2075424119  20.8082833314  12.3870577919
 H      21.4232212639  20.4440723607   9.9168042861
 H      20.2543483671  18.5197052851   8.8465087961
 H      18.8629087032  16.9838277133  10.2330710788
 H      18.6401573732  17.3770393639  12.6850348487
 H      22.7238079673  14.0483025466  14.6604078845
 H      23.3917809968  14.1332550749  12.2626588822
 H      21.6714705156  13.8618068818  10.4813447492
 H      19.2877775075  13.4746073959  11.1058613689
 H      18.6417823363  13.3482381017  13.5184666955
 H      16.1544777254  17.6863037020  12.0230734456
 H      15.9360200695  17.8931579579   9.5469307917
 H      15.1487076478  15.9441720089   8.2016208841
 H      14.5481098125  13.8110896639   9.3445396604
 H      14.7156781920  13.6494942097  11.8398553890
 H      21.5887306728  16.9674868422  15.4252254197
 H      21.7164512175  15.5777739356  16.1635935537
 H      14.0922544948  17.9635306329  14.7203951813
 H      13.7297268456  19.3698356330  15.3385508713
 H      13.4903089246  15.3894766092  18.9893942442
 H      13.7758912337  16.7673373546  19.6935616993
 H      20.7448334083  18.2487822981  20.3917002999
 H      21.1906336321  19.6111523197  19.7430012045
