CRYSTAL
PRIMVEC
  35.0000000000   0.0000000000   0.0000000000
   0.0000000000  35.0000000000   0.0000000000
   0.0000000000   0.0000000000  35.0000000000
PRIMCOORD
  260    1
 Mn     16.3226451143  18.5757257279  18.4325141612
 Mn     18.5939474667  18.5375698163  16.6503643403
 Mn     18.4520710986  16.4471367507  18.5962387374
 Mn     16.4853486409  16.3870332943  16.4833146387
 Mn     14.3494893679  20.6094425590  18.3219126507
 Mn     17.4078069285  21.7661132225  17.4441484369
 Mn     20.5319878167  20.6341169185  16.7952057413
 Mn     21.7119105403  17.5741938854  17.9551039878
 Mn     20.4606303718  14.4215033043  18.7549447244
 Mn     17.5532865065  13.2056368252  17.5266392180
 Mn     14.5883606864  14.2884509567  16.2928333045
 Mn     13.0684153122  17.3983748349  17.2955736298
 O      18.2947610427  18.3767951342  18.5414111755
 O      16.6655068452  18.3570816645  16.5313078584
 O      18.4494163450  16.6093111388  16.6844645523
 O      16.5287618369  16.6051266982  18.4177803945
 O      14.4912547481  18.7199727436  18.1644645104
 O      16.3067018876  20.4761035493  18.3297111560
 O      18.6266596010  20.4442574613  16.7254907152
 O      20.4952886538  18.6991931545  16.9784112229
 O      20.3759041207  16.3480654285  18.5823114676
 O      18.5574689238  14.5383138968  18.5127929259
 O      16.5130873040  14.4908765301  16.5681032531
 O      14.6356508857  16.1845729593  16.4814062481
 O      22.0933736815  16.4480161874  16.0384354341
 O      21.4833310230  18.6863164669  19.8923483960
 O      13.1730059395  18.4873380295  15.3312072269
 O      13.1425006823  16.3151258307  19.2548704050
 O      16.0423238166  18.5568762207  20.3809602101
 O      14.5615053119  20.2867650319  20.5533892437
 O      18.9522785138  18.5175970229  14.7089320068
 O      20.4870488110  20.2050347671  14.5960237926
 O      18.5061379671  16.4682071380  20.5734024814
 O      20.0341021716  14.8073641041  20.9224899062
 O      16.5050187791  16.4084202240  14.5174071537
 O      15.1009791114  14.6513077449  14.1180372424
 O      14.2621178535  22.5895405461  18.6159404411
 O      16.3798066614  23.3216968353  18.2223561258
 O      16.1643660841  21.8824343476  15.6661404341
 O      14.1846976839  20.8620080422  16.0757199213
 O      12.3645427795  20.7110079654  18.4879464362
 O      11.4702179527  18.7019392658  17.9080593698
 O      18.4077412722  23.2560937439  16.5158723435
 O      20.5781450156  22.5813830507  16.3879048085
 O      18.6889884719  22.1371004043  19.2066074684
 O      20.6395739194  21.0103273738  19.0022330361
 O      22.5246169747  20.7665880005  16.7217850067
 O      23.2675719631  18.7528982234  17.4844980262
 O      23.1693792652  16.4971716893  18.8188170643
 O      22.4188808409  14.3723261215  19.1583508066
 O      20.9748393373  14.1335080054  16.5904625315
 O      19.1020493635  13.0292833307  15.9670571749
 O      18.4805802896  11.6954287715  18.4994194651
 O      20.5285676327  12.4701125451  19.1192505968
 O      16.7411357404  11.6697157580  16.4986832794
 O      14.6307952205  12.3148445986  15.9427948437
 O      14.1478575322  13.9528049788  18.4910414363
 O      16.0646730401  12.9041110917  19.0862968215
 O      11.5990543670  15.9919210917  16.5974352190
 O      12.6497036638  14.1138166903  15.8634682796
 C      15.1934439019  19.3106460231  21.0231184913
 C      14.9586350948  18.9196677982  22.4562318740
 C      15.3241795376  17.6527741271  22.9329390118
 C      15.0399503174  17.2926450115  24.2514796570
 C      14.4079300806  18.2002795039  25.1053199768
 C      14.0493497627  19.4688277771  24.6354139277
 C      14.3134932664  19.8243318691  23.3134515693
 C      19.8230439850  19.2615384844  14.0940848859
 C      20.0555935546  18.9102208004  12.6515600812
 C      20.7503754925  19.8113627064  11.8298223288
 C      21.0031804357  19.4896605119  10.4971064785
 C      20.5810439008  18.2592320777   9.9810528157
 C      19.8978748525  17.3558073657  10.7992502135
 C      19.2924185689  15.7439998204  21.3152939492
 C      19.3149140053  16.1156456014  22.7712856486
 C      18.7884376279  17.3378898134  23.2125127964
 C      18.8683749174  17.6873777290  24.5616373047
 C      19.4585480776  16.8130887702  25.4780052561
 C      19.9780408347  15.5888008942  25.0423769793
 C      19.9156435654  15.2440234293  23.6930659077
 C      15.7807462274  15.6405904140  13.7525866271
 C      15.7642303319  16.0293174791  12.2999348774
 C      15.2949854403  15.1070822296  11.3514722649
 C      15.2328495239  15.4598303725  10.0040338815
 C      15.6175408784  16.7425434175   9.5970361315
 C      16.0738080893  17.6670347403  10.5400234569
 C      16.1576199215  17.3103066947  11.8872315124
 C      15.1739893414  23.4793243113  18.5910865874
 C      14.7836172587  24.8605275058  19.0367092711
 C      13.4662908366  25.1251597570  19.4382260320
 C      13.1044318929  26.4089988187  19.8466680789
 C      14.0545941349  27.4349091368  19.8594234084
 C      15.3698409790  27.1730983690  19.4625692856
 C      15.7350889793  25.8909840185  19.0515432565
 C      15.0535822759  21.4035715622  15.2982901537
 C      14.7287780276  21.4836501484  13.8271025339
 C      13.4229545819  21.2781827996  13.3582938803
 C      13.1449974030  21.3579700752  11.9925726368
 C      14.1693999694  21.6343531013  11.0829048427
 C      15.4740376486  21.8392774162  11.5442601577
 C      15.7510881806  21.7712337354  12.9095415149
 C      11.3880546377  19.8928603007  18.3080294793
 C      10.0174227144  20.4470481983  18.6034232017
 C       8.8937338385  19.6182848947  18.4746900132
 C       7.6182337318  20.1199236696  18.7357366627
 C       7.4553341918  21.4536969799  19.1240028667
 C       8.5734229415  22.2834371342  19.2537946506
 C       9.8500101947  21.7823000591  18.9962488121
 C      19.6325693247  23.4279363812  16.2363539959
 C      20.0151154657  24.7673191627  15.6741612323
 C      21.3462848014  25.0322420423  15.3218437114
 C      21.6968529033  26.2788996702  14.8032312068
 C      20.7211392155  27.2661440348  14.6319672019
 C      19.3924609309  27.0033061744  14.9797552271
 C      19.0379504814  25.7585253420  15.4996650244
 C      19.7388440759  21.6356728065  19.6869644618
 C      19.9626838757  21.7740964797  21.1706034169
 C      18.8776860094  22.1015409280  21.9985171128
 C      19.0541219491  22.2168065091  23.3771583253
 C      20.3199708767  22.0230786317  23.9403056496
 C      21.4068505667  21.7081161715  23.1197481860
 C      21.2287450429  21.5774596404  21.7413559817
 C      23.4332094369  19.9191110384  17.0003135574
 C      24.8513963995  20.3398017312  16.7422801261
 C      25.1310871925  21.6490765204  16.3250158571
 C      26.4489336375  22.0399985298  16.0893821849
 C      27.4929862039  21.1257744541  16.2625690031
 C      27.2161207192  19.8182638359  16.6739871405
 C      25.9002106994  19.4248616950  16.9165953635
 C      23.3019788357  15.2889052740  19.1988996786
 C      24.6489631332  14.9043657203  19.7405060629
 C      25.6464144401  15.8768669268  19.9048457240
 C      26.8966036172  15.5154124842  20.4062939976
 C      27.1603651713  14.1833785275  20.7402599401
 C      26.1676298468  13.2119794207  20.5760574600
 C      24.9140318562  13.5702467816  20.0810556707
 C      20.2187264063  13.5539358169  15.7177077794
 C      20.7113905175  13.4951857757  14.2945035881
 C      22.0604544268  13.7109006492  13.9764619845
 C      22.4886514721  13.6495568681  12.6490004988
 C      21.5719346995  13.3840689825  11.6280678942
 C      20.2250689537  13.1694299235  11.9392011867
 C      19.7980089289  13.2164062747  13.2658839783
 C      19.6297903622  11.5663045937  19.0179260979
 C      19.9778028040  10.2109610957  19.5636323019
 C      19.0494027050   9.1631969445  19.4771501903
 C      19.3713373409   7.9029978647  19.9803142754
 C      20.6192353796   7.6810551471  20.5713256076
 C      21.5459982353   8.7247664899  20.6601008356
 C      21.2274812700   9.9868639850  20.1589507376
 C      15.5902760146  11.4779740241  15.9938369764
 C      15.3351097958  10.1201220238  15.4022891150
 C      16.3397304766   9.1416122239  15.4247504767
 C      16.0999039613   7.8818581230  14.8754598663
 C      14.8577978981   7.5912354891  14.3021759577
 C      13.8549800462   8.5655758575  14.2775808411
 C      14.0915854329   9.8268311883  14.8244139587
 C      14.9175626154  13.3705181656  19.3413305608
 C      14.4192697922  13.2301141995  20.7579653558
 C      13.0650258080  13.4121569309  21.0740385045
 C      12.6270351687  13.2831834931  22.3932043364
 C      13.5390548383  12.9827367353  23.4088605453
 C      14.8915045704  12.8018909596  23.1002555909
 C      15.3281576724  12.9174103541  21.7806552223
 C      11.6128300720  14.8452291646  16.0776718176
 C      10.2965292898  14.2387573472  15.6642114784
 C      10.2324031489  12.9335723875  15.1561839323
 C       9.0032055444  12.3813431341  14.7933804432
 C       7.8303795564  13.1302510703  14.9320350972
 C       7.8905327983  14.4336700107  15.4355554591
 C       9.1180624446  14.9858520440  15.8021037637
 C      19.6272889463  17.6816870579  12.1294375051
 H       9.0469717205  18.5830367369  18.1686745858
 H       6.7476534072  19.4692585557  18.6356353395
 H       6.4566283037  21.8458055020  19.3257904992
 H       8.4478120724  23.3247817084  19.5563404104
 H      10.7350625442  22.4114204566  19.0910700139
 H      11.1585616748  12.3674420453  15.0572610649
 H       8.9580982724  11.3635812212  14.4011788029
 H       6.8691805692  12.6980053311  14.6470324160
 H       6.9765505161  15.0206408094  15.5423412623
 H       9.1903004233  15.9985761358  16.1998829628
 H      17.3022322902   9.3883937328  15.8727057300
 H      16.8850628992   7.1241622015  14.8924058727
 H      14.6717178757   6.6050756672  13.8724037048
 H      12.8856045384   8.3413428032  13.8289252530
 H      13.3249991311  10.6013670288  14.8130081405
 H      16.3765635507  12.7745145054  21.5177701156
 H      15.6078175594  12.5710225063  23.8909175752
 H      13.1963951138  12.8912113036  24.4414911889
 H      11.5713139512  13.4257228732  22.6297506025
 H      12.3603256472  13.6554804584  20.2788790927
 H      21.9342195344  10.8137960480  20.2210353357
 H      22.5195138968   8.5535342380  21.1225441927
 H      20.8694936369   6.6937577908  20.9649376924
 H      18.6459134224   7.0907120382  19.9128221597
 H      18.0811787038   9.3572302959  19.0159779205
 H      15.8254067597  16.9559330875  22.2610687408
 H      15.3153880965  16.2998093765  24.6102524624
 H      14.1900797144  17.9184572217  26.1371601441
 H      13.5528064171  20.1785818128  25.2996985313
 H      14.0199404951  20.7971772720  22.9183874833
 H      18.3204799640  18.0060488446  22.4895933086
 H      18.4632578463  18.6435327820  24.8954676977
 H      19.5154281213  17.0854292757  26.5335130581
 H      20.4388814108  14.9047045889  25.7573624506
 H      20.3311784418  14.3044899416  23.3280648274
 H      22.0710075576  21.3240787665  21.0975291566
 H      22.3958364740  21.5560797278  23.5554702014
 H      20.4586106181  22.1150394651  25.0193649184
 H      18.2013564369  22.4567240503  24.0147606464
 H      17.9009290888  22.2545160728  21.5391141191
 H      12.7410038874  24.3119070250  19.4225620323
 H      12.0775683317  26.6100518480  20.1571867546
 H      13.7704812862  28.4386665789  20.1808387451
 H      16.1144133234  27.9707692779  19.4748214998
 H      16.7557026447  25.6672970887  18.7406026806
 H      22.0904684786  24.2482476975  15.4605767555
 H      22.7338415769  26.4820366371  14.5305875194
 H      20.9967571685  28.2411127555  14.2257235333
 H      18.6292195944  27.7713747259  14.8440500667
 H      18.0074462436  25.5325172022  15.7739607289
 H      24.3029479701  22.3448280768  16.1926418137
 H      26.6639068392  23.0603099951  15.7678952987
 H      28.5238819540  21.4323562609  16.0754154143
 H      28.0290703361  19.1021762369  16.8041102734
 H      25.6636114935  18.4097583165  17.2352810577
 H      25.4214725145  16.9098473489  19.6402532489
 H      27.6680738985  16.2755724360  20.5387951019
 H      28.1403500908  13.9019134026  21.1306731492
 H      26.3719352234  12.1721806532  20.8362863634
 H      24.1265999997  12.8288280062  19.9478859307
 H      16.7593627236  21.9352938564  13.2904589220
 H      16.2781434539  22.0528237921  10.8375153915
 H      13.9517451360  21.6879276503  10.0144284771
 H      12.1258030023  21.1970003495  11.6374053544
 H      12.6288967377  21.0572815463  14.0715030833
 H      21.0863361122  20.7557984364  12.2582787132
 H      21.5363483111  20.1967623664   9.8588621506
 H      20.7862450651  18.0051318310   8.9394114726
 H      19.5685181242  16.3945930633  10.4023800021
 H      19.0864254679  16.9901917015  12.7753984276
 H      22.7708499873  13.9228275897  14.7756676111
 H      23.5406667409  13.8152632596  12.4108543227
 H      21.9065224650  13.3456068320  10.5896888937
 H      19.5046277796  12.9651898936  11.1452494116
 H      18.7542626246  13.0450668711  13.5301979449
 H      16.5202855077  18.0196150148  12.6313232822
 H      16.3672289958  18.6707923954  10.2296591727
 H      15.5568276723  17.0221381216   8.5436051567
 H      14.8736969922  14.7373172750   9.2688795473
 H      14.9756721568  14.1228533465  11.6955080791
 H      21.5364002010  16.8882670936  15.3716589414
 H      21.6961412430  15.5247590126  16.1501196691
 H      13.8913745466  18.0320442221  14.8553640483
 H      13.5270189444  19.4062698528  15.5287877029
 H      13.4794678817  15.3925408223  19.0472418373
 H      13.8658525834  16.7447124272  19.7468536768
 H      20.7168249974  18.2753416716  20.3327678202
 H      21.1799110111  19.6200189412  19.6555917591
