CRYSTAL
PRIMVEC
  35.0000000000   0.0000000000   0.0000000000
   0.0000000000  35.0000000000   0.0000000000
   0.0000000000   0.0000000000  35.0000000000
PRIMCOORD
  260    1
 Mn     16.3397339574  18.5223337175  18.4426012476
 Mn     18.6194132727  18.5477279595  16.7183007047
 Mn     18.5008671896  16.4221229471  18.6666763658
 Mn     16.5189665336  16.3845708668  16.5114190699
 Mn     14.3350081155  20.5474996988  18.2116254784
 Mn     17.4122444259  21.7576876223  17.5407067825
 Mn     20.5418697533  20.6541248125  16.9394111205
 Mn     21.7439855897  17.5596005831  17.9948384719
 Mn     20.4964733971  14.4118976399  18.8731258571
 Mn     17.5788815660  13.0300631062  17.5795003259
 Mn     14.5988378754  14.2982206281  16.3125635720
 Mn     13.2402746836  17.3849620887  17.2329760748
 O      18.2593069644  18.4024606872  18.5977839705
 O      16.7028287328  18.3701351969  16.5652616637
 O      18.4655330425  16.6092775769  16.7310853904
 O      16.5488724048  16.5887175278  18.4465369658
 O      14.4570114862  18.6219724421  18.0751964667
 O      16.2505655368  20.4412149750  18.3330393465
 O      18.6353868329  20.4668151059  16.8052312746
 O      20.4980935565  18.7232618363  17.0928858557
 O      20.4094274249  16.3723596297  18.6611706493
 O      18.6296144838  14.5786919934  18.6238399714
 O      16.4557915799  14.5382791321  16.5628254508
 O      14.6096251286  16.2640558097  16.5203994419
 O      22.0397975217  16.4188312692  16.0883834693
 O      21.6440557234  18.7124581159  19.9421336507
 O      13.2115814374  18.5202607684  15.2705239645
 O      13.0933581957  16.2645668458  19.1621138643
 O      15.9428529479  18.5357577548  20.3809287829
 O      14.3712166478  20.1937075412  20.4222213036
 O      19.0230897240  18.5523423466  14.7822946510
 O      20.5340928334  20.2650264480  14.7307265006
 O      18.5200649234  16.5049275549  20.6352270786
 O      20.1094633580  14.9136715894  21.0448384832
 O      16.5078356662  16.4471809069  14.5427790625
 O      14.9680640128  14.8062351197  14.1413661178
 O      14.1992932594  22.5069308366  18.5397062966
 O      16.3272218820  23.2787553913  18.3095091832
 O      16.2337860881  21.9170089779  15.7049845497
 O      14.2690805719  20.8310924552  15.9803689479
 O      12.3406532824  20.6106222611  18.2161303752
 O      11.6561234623  18.4738892999  17.8237280858
 O      18.4316201575  23.2887632615  16.7027292565
 O      20.5990391919  22.6100358674  16.5667348008
 O      18.5867849172  22.0467560238  19.3676929600
 O      20.5770714896  20.9939115148  19.1539546105
 O      22.5303245135  20.7978479670  16.9319825389
 O      23.2935515339  18.7127656934  17.4375513997
 O      23.2182068802  16.4909526521  18.8293438440
 O      22.4809414603  14.3708967993  19.2184629883
 O      20.9738910299  14.1078006349  16.6774232442
 O      19.1360327557  12.9380225871  16.0605865207
 O      18.6331182423  11.4977345867  18.7101625926
 O      20.5911280951  12.4800421604  19.3179463328
 O      16.6005512650  11.4737820860  16.4092260638
 O      14.5867844017  12.3673375654  15.8486003522
 O      14.1498914504  13.9632992175  18.5117629265
 O      16.0267642810  12.8377912472  19.0937640440
 O      11.7877549259  16.2358200842  16.4655421616
 O      12.6188256670  14.1750511661  15.9644185179
 C      15.0528411315  19.2850199272  20.9627593327
 C      14.8241763260  18.9906425826  22.4185987239
 C      15.2476161845  17.7812571357  22.9874475109
 C      14.9809612254  17.5102674206  24.3305577878
 C      14.3099319038  18.4513363734  25.1158587367
 C      13.8939057979  19.6634940757  24.5533488124
 C      14.1394298487  19.9286297894  23.2070179795
 C      19.8942364769  19.3214220631  14.1990800964
 C      20.1596867877  19.0058847335  12.7536085177
 C      20.8087299315  19.9594852416  11.9537836582
 C      21.0942730562  19.6751637003  10.6193314491
 C      20.7549283476  18.4286836724  10.0805680218
 C      20.1201303404  17.4726153749  10.8777080987
 C      19.3135536988  15.8145413545  21.4046774172
 C      19.2701190858  16.1905604198  22.8603425697
 C      18.7388208126  17.4189698757  23.2772530110
 C      18.7671644695  17.7703077101  24.6282127701
 C      19.3057477681  16.8899794987  25.5702725776
 C      19.8280343749  15.6583508855  25.1585565650
 C      19.8210878700  15.3138124264  23.8077668754
 C      15.7516239484  15.7153224673  13.7747503502
 C      15.8280611935  16.0441411759  12.3089554356
 C      15.3360189964  15.1174148260  11.3766876596
 C      15.3657867432  15.4129735608  10.0146500733
 C      15.8654285338  16.6443723826   9.5756395158
 C      16.3446275991  17.5738117744  10.5023443455
 C      16.3371020341  17.2725045200  11.8654928183
 C      15.0991827454  23.4115965601  18.5981172927
 C      14.6546580031  24.7740342710  19.0459150153
 C      13.3153889243  25.0016050101  19.3935050915
 C      12.9058703153  26.2708114746  19.8023010496
 C      13.8297675573  27.3184939180  19.8673460041
 C      15.1667058268  27.0935602240  19.5243691834
 C      15.5801780586  25.8258524914  19.1147689951
 C      15.1795774822  21.3888739698  15.2576193362
 C      14.9700889086  21.4217833204  13.7656749394
 C      13.7050495143  21.2058859373  13.1997341427
 C      13.5386312575  21.2432973477  11.8140542811
 C      14.6356038498  21.4844404729  10.9822584211
 C      15.9000333865  21.6988885046  11.5409072399
 C      16.0651989870  21.6759061705  12.9254760179
 C      11.4578945923  19.6959764042  18.1138592709
 C      10.0327560970  20.1071618672  18.3468826132
 C       9.0106378564  19.1468437771  18.3196571650
 C       7.6861638424  19.5318375954  18.5273815049
 C       7.3739505584  20.8753859622  18.7575481217
 C       8.3911473698  21.8346046938  18.7843747453
 C       9.7175411745  21.4530884429  18.5828983518
 C      19.6586268542  23.4635790218  16.4313239431
 C      20.0480087324  24.8136112540  15.9021424889
 C      21.3853969849  25.0868478452  15.5808446634
 C      21.7432189781  26.3422614072  15.0894429399
 C      20.7688992979  27.3298390564  14.9134464807
 C      19.4338557559  27.0588670884  15.2297007640
 C      19.0723349842  25.8053663767  15.7234845092
 C      19.6482523575  21.5622918675  19.8454569739
 C      19.8463855756  21.6620406576  21.3356634216
 C      18.7432460147  21.9404917077  22.1574412722
 C      18.8993325309  22.0237025697  23.5408402866
 C      20.1621992688  21.8455900294  24.1156293486
 C      21.2669011655  21.5797891410  23.3015774036
 C      21.1096980714  21.4822728696  21.9179443197
 C      23.4466223633  19.9238959738  17.0820514724
 C      24.8548784031  20.3737069327  16.8227525602
 C      25.1184090396  21.7127892484  16.5000114232
 C      26.4286858705  22.1293645324  16.2657112505
 C      27.4812026415  21.2121241380  16.3471186625
 C      27.2204772240  19.8754155153  16.6645246242
 C      25.9121887560  19.4557067290  16.9042644477
 C      23.3643829241  15.2829003648  19.2141568379
 C      24.7339745351  14.9051205155  19.7024648296
 C      25.7318510493  15.8815339384  19.8364326235
 C      27.0021268837  15.5241057072  20.2887507645
 C      27.2852609023  14.1910315591  20.6023157175
 C      26.2926132749  13.2153924736  20.4671320086
 C      25.0190135116  13.5699511336  20.0225193139
 C      20.2241542412  13.5142546440  15.8073071870
 C      20.6900054116  13.5103648123  14.3718051627
 C      22.0270953866  13.7611081692  14.0306033948
 C      22.4260420299  13.7523859948  12.6923918004
 C      21.4906986343  13.5061282278  11.6833827969
 C      20.1555527692  13.2554426577  12.0175011057
 C      19.7591139410  13.2479253960  13.3546658354
 C      19.7839169831  11.4784456561  19.2096317675
 C      20.3122950756  10.1694901765  19.7406337804
 C      19.5264406780   9.0135834539  19.6285301806
 C      20.0025176746   7.7919408603  20.1056843536
 C      21.2664660947   7.7154416746  20.6998095247
 C      22.0522249559   8.8664120806  20.8165878235
 C      21.5777265174  10.0888975045  20.3387186316
 C      15.4533844029  11.4124085612  15.9043110166
 C      15.0076763521  10.1059958452  15.2956390077
 C      15.8628725051   8.9959183213  15.3458262258
 C      15.4680372494   7.7792887900  14.7885404085
 C      14.2166377670   7.6619453983  14.1750284567
 C      13.3615591501   8.7671012019  14.1202373279
 C      13.7544978394   9.9844850786  14.6785993270
 C      14.9291831178  13.3864507024  19.3676993215
 C      14.4905982775  13.3726031420  20.8117940941
 C      13.1531968156  13.5815489236  21.1789484967
 C      12.7823747328  13.5694701573  22.5252831518
 C      13.7457820359  13.3625908520  23.5165153380
 C      15.0815486563  13.1545171907  23.1565485489
 C      15.4503232528  13.1494432162  21.8115231035
 C      11.6925342677  15.0414092816  16.0257576680
 C      10.3348677550  14.6206622631  15.5385616630
 C      10.1064548620  13.2882557242  15.1651427924
 C       8.8460258241  12.8959231340  14.7145013825
 C       7.8098084126  13.8307382783  14.6268343667
 C       8.0361033976  15.1608230313  14.9944524862
 C       9.2930783808  15.5557411972  15.4526535595
 C      19.8122385886  17.7619413187  12.2083207912
 H       9.2743616326  18.1049555664  18.1384266316
 H       6.8941479089  18.7813641491  18.5098777033
 H       6.3365800109  21.1753200904  18.9166265707
 H       8.1490022363  22.8836602819  18.9625876717
 H      10.5250200515  22.1848131480  18.5999313135
 H      10.9281047992  12.5759049682  15.2383585833
 H       8.6709455052  11.8571909637  14.4295888770
 H       6.8251022711  13.5226140021  14.2705487201
 H       7.2301555155  15.8930189003  14.9221626989
 H       9.4891315210  16.5880917624  15.7420717515
 H      16.8343732426   9.1131507793  15.8265794800
 H      16.1385109573   6.9188812673  14.8309414194
 H      13.9084753519   6.7095693644  13.7386708541
 H      12.3854442589   8.6789992394  13.6391389270
 H      13.1039685950  10.8584858460  14.6447177204
 H      16.4835443122  12.9787997906  21.5081960075
 H      15.8387661163  12.9958787554  23.9268236915
 H      13.4560388467  13.3642122332  24.5692239051
 H      11.7387212081  13.7295105958  22.8017450094
 H      12.4065711195  13.7507180628  20.4030557133
 H      22.1736870770  10.9979167095  20.4201120100
 H      23.0384186149   8.8097931855  21.2817959596
 H      21.6388719081   6.7588307730  21.0720988670
 H      19.3862879588   6.8953223828  20.0148952918
 H      18.5444699583   9.0989554351  19.1625637781
 H      15.7809655045  17.0594072704  22.3690258851
 H      15.3036976207  16.5621197291  24.7628527700
 H      14.1080191086  18.2406466470  26.1677961975
 H      13.3704283125  20.4002741859  25.1655367843
 H      13.8055341062  20.8567688551  22.7426870743
 H      18.3113899796  18.0924761985  22.5344938238
 H      18.3643932542  18.7340976604  24.9428203800
 H      19.3215888018  17.1636546091  26.6271575815
 H      20.2493316792  14.9692797767  25.8930031886
 H      20.2429604649  14.3703921230  23.4606799136
 H      21.9663055294  21.2686375660  21.2787132053
 H      22.2539150639  21.4413956334  23.7461781834
 H      20.2848903899  21.9114205021  25.1984510517
 H      18.0331639766  22.2266669791  24.1733605847
 H      17.7692314755  22.0824341460  21.6889883636
 H      12.6116905821  24.1712570392  19.3376487616
 H      11.8627286934  26.4444139382  20.0720308231
 H      13.5078470482  28.3112459356  20.1869289270
 H      15.8898113660  27.9091137442  19.5776041843
 H      16.6179403118  25.6290040701  18.8461122702
 H      22.1281221691  24.3017462821  15.7214274486
 H      22.7850530586  26.5515763601  14.8407143233
 H      21.0500119301  28.3115035585  14.5276785055
 H      18.6716149809  27.8268754092  15.0886273270
 H      18.0369197700  25.5731065753  15.9721605921
 H      24.2838824730  22.4110376530  16.4399962205
 H      26.6301166808  23.1727825736  16.0180416197
 H      28.5059261159  21.5392439232  16.1617276942
 H      28.0396453002  19.1570000386  16.7242786956
 H      25.6885159896  18.4179805097  17.1513538805
 H      25.4914198158  16.9149514672  19.5872374629
 H      27.7741442000  16.2876696378  20.3978042397
 H      28.2807115229  13.9122618951  20.9528529462
 H      26.5123031449  12.1743942549  20.7095598670
 H      24.2302836284  12.8259165036  19.9117866789
 H      17.0403077258  21.8474390003  13.3815112008
 H      16.7605586627  21.8830104084  10.8949922870
 H      14.5059667708  21.5019875080   9.8984582646
 H      12.5504204194  21.0769454612  11.3817414656
 H      12.8539209672  21.0124710949  13.8526326030
 H      21.0846632866  20.9147147207  12.4008239181
 H      21.5906408081  20.4234660665   9.9985358242
 H      20.9890026735  18.2030862579   9.0382683314
 H      19.8594929457  16.4970929148  10.4649768503
 H      19.3069150674  17.0273520505  12.8352278204
 H      22.7516798085  13.9589843983  14.8203877556
 H      23.4695047391  13.9445772340  12.4363603003
 H      21.8019145215  13.5097163722  10.6368496567
 H      19.4208023758  13.0642678405  11.2329935263
 H      18.7265332994  13.0429088850  13.6383924784
 H      16.7187947957  17.9846665011  12.5970817373
 H      16.7299765594  18.5372810429  10.1659877218
 H      15.8786736514  16.8794777420   8.5095893882
 H      14.9916393699  14.6849389092   9.2925281223
 H      14.9316332949  14.1737650178  11.7434750365
 H      21.4713699341  16.8336904297  15.4154522313
 H      21.6548150932  15.4880348796  16.2260057308
 H      13.8559305227  18.0502257220  14.7112667346
 H      13.6109804736  19.4319855729  15.4332661137
 H      13.4689847582  15.3341314434  18.9985031362
 H      13.7226080701  16.6855437704  19.7756215736
 H      20.9822988687  18.2383475231  20.4772054277
 H      21.2373759623  19.6151667494  19.7505022054
