CRYSTAL
PRIMVEC
  32.0000000000   0.0000000000   0.0000000000
   0.0000000000  32.0000000000   0.0000000000
   0.0000000000   0.0000000000  32.0000000000
PRIMCOORD
  148    1
 Mn     17.3102651290  15.5620830070  14.9724718280
 Mn     14.4893689283  16.5449464445  15.2072615193
 Mn     15.5960283697  14.5864872734  17.0741394684
 Mn     16.5644338140  17.4197487931  17.0011461226
 Mn     19.9751081667  14.6062596833  14.6297885790
 Mn     19.8978522373  17.7494953998  15.9104633432
 Mn     11.8398293247  17.5184156208  15.3434382320
 Mn     12.0094965958  14.2379555552  16.5766948744
 Mn     14.6768573986  11.9099543826  17.2508586496
 Mn     17.7524805716  12.1618269561  15.7842184636
 Mn     17.5519816295  20.0893457389  16.9556550363
 Mn     14.2480361927  19.9217149822  16.1280242217
 O      17.2771713443  15.6342861784  16.8819647579
 O      19.1053564263  16.3080238844  14.9171732607
 O      18.2349298510  13.8881586881  15.0087188382
 O      17.2176340603  15.5749928642  12.9957500235
 O      19.2983299952  14.7710722808  12.4990535223
 O      20.7730762838  14.4285427001  16.7267528989
 O      20.7097802759  16.5530396850  17.5276233868
 O      20.7989930957  12.8363803450  14.2209230077
 O      20.8822532409  19.2287324741  16.8712286993
 O      21.7258345138  15.3827423463  14.0511214544
 O      21.7163013896  17.4669586011  14.9809191594
 O      19.7616220598  19.2666321822  14.2759918495
 O      14.9048733211  16.4241806379  17.0981916471
 O      12.7721570477  15.8688719503  15.4140882083
 O      13.6564249474  18.2372176950  15.4393365226
 O      14.2949029715  16.6096847608  13.2549576936
 O      12.1734136117  17.4521673306  13.1136037943
 O      11.6303273943  17.6373658027  17.6025042131
 O      11.6441656711  15.4836996721  18.3122215157
 O      10.9753765112  19.3305733780  15.1622077043
 O      11.2591410652  12.5185743111  17.6598079713
 O      10.0038630508  16.8134855212  15.0858650226
 O       9.9791125809  14.6700143037  15.8610864573
 O      12.0829546540  12.9425907161  14.7553112788
 O      15.5194938277  14.8622375526  15.1524679943
 O      16.3788992326  12.8466797435  16.9062181789
 O      13.9899908913  13.6691821930  17.1092494050
 O      15.7958203752  14.5318812930  19.0220663222
 O      15.1328242009  12.3780668088  19.4100073216
 O      14.3614545197  11.4364397677  15.0159630915
 O      16.4741270051  11.5322837163  14.1800957691
 O      12.9739959839  11.0163032026  17.7290790288
 O      19.2222046667  11.2616418049  14.7281226641
 O      15.4969397760  10.0944797513  17.4975904513
 O      17.5736367870  10.2826166014  16.5703294395
 O      19.2747310027  12.3265485947  17.4596902745
 O      16.3484796749  17.2273414994  15.1060374763
 O      15.8413074361  19.2010982278  16.9373014787
 O      18.2469140462  18.3081338777  16.7484030093
 O      16.7190782710  17.5241381845  18.9618753789
 O      17.5207436982  19.6568253956  19.1574080265
 O      17.4838633891  20.4416022306  14.7139314320
 O      15.2619396181  20.5057481336  14.3002113284
 O      19.3592350833  20.9187884398  17.0980045121
 O      12.6522089908  20.8736819828  15.3390921961
 O      16.8467515456  21.9150367468  17.3242047305
 O      14.6096565763  21.7789344276  16.8944328827
 O      13.0370856806  19.7731502512  18.0176268097
 C      18.1552829899  15.1935492784  12.2100964412
 C      17.8424715821  15.2788505251  10.7013197236
 C      20.9847274010  15.3359623822  17.6053634505
 C      21.6534596005  14.8082597346  18.8982726124
 C      20.3152782090  11.6688940601  14.2412625383
 C      21.1588537303  10.5453181702  13.6010765738
 C      22.2001511764  16.5303895143  14.2826252799
 C      23.5474948856  16.8902966304  13.6198233350
 C      13.2150074658  16.9667582856  12.6389468609
 C      13.3130383506  16.6707337284  11.1252611532
 C      11.6806385505  16.7164841411  18.4947984428
 C      11.8325026203  17.2571170386  19.9441357174
 C      11.4754981949  20.4904765100  15.0892503211
 C      10.4585192762  21.5740667671  14.6697426033
 C       9.4620786009  15.6876619172  15.3495965770
 C       7.9670413664  15.5557920948  14.9841429008
 C      15.5373264711  13.5005966930  19.7591448337
 C      15.8371019431  13.7872356744  21.2481034804
 C      15.2370331440  11.2811189398  14.1150553536
 C      14.8347626040  10.6599995979  12.7536397474
 C      11.7763837653  11.4111623955  17.9292304341
 C      10.8249234051  10.3821620945  18.5787915837
 C      16.6485858996   9.6822055744  17.1950083976
 C      17.0309690153   8.2514304124  17.6329027455
 C      17.1144660318  18.5602264028  19.6069961204
 C      17.0946397991  18.4382134782  21.1456673361
 C      16.4586212364  20.4020574515  13.9527873206
 C      16.7442199253  20.1020128514  12.4539252052
 C      20.5098509929  20.3999954775  17.1698944670
 C      21.6624246202  21.2973648897  17.6709561267
 C      15.6646337879  22.3582228123  17.2821022634
 C      15.4281104506  23.8016762602  17.7769960876
 H      18.9067614829  19.7951786516  14.2528169981
 H      20.0373889049  19.0926832403  13.3622300270
 H      22.1718878364  13.8672045957  18.6955985458
 H      20.5963463908   9.6095227513  13.6326990491
 H      23.9816792142  17.7546238856  14.1280967090
 H      12.8464859997  12.3084172690  14.7183974916
 H      12.1284792394  13.4541237967  13.9289020005
 H      12.6882597711  17.9415466878  19.9819669709
 H      18.8415543350  12.5377177782  18.3065336492
 H      19.9107363668  13.0751720489  17.2923499724
 H      15.9475580712  14.8612390957  21.4195599730
 H       9.8548315822  10.8547091414  18.7493584976
 H      18.0086314513   7.9950296006  17.2188319012
 H      12.3762263631  19.0082629140  17.9447724332
 H      12.5374207896  20.5760736722  18.2420831051
 H      17.2977013355  19.4211393557  21.5777773594
 H       9.5408332089  21.0930617008  14.3231379046
 H      17.0295109055  19.0436012682  12.3807353462
 H      14.3582507070  16.6096134324  10.8104090097
 H      18.6828273966  14.8614928769  10.1415185423
 H      15.5831141371  10.9184351395  12.0006761101
 H       7.6067375344  14.5759561369  15.3059802018
 H      14.4543333311  24.1486508206  17.4227829343
 H      22.5446952023  20.6797762733  17.8542624474
 Cl     11.0821033702  22.5864821885  13.3609810455
 Cl     10.0331019179  22.5313502791  16.1197953209
 Cl     18.1437839415  21.0413551482  11.8419997662
 Cl     15.3352550295  20.3231220008  11.4133043616
 Cl     12.6019129191  15.0458505023  10.8628630164
 Cl     12.5052686301  17.9012924551  10.1475595156
 Cl     17.6893126138  16.9917646014  10.2114465357
 Cl     16.3928809442  14.3418990750  10.2838597410
 Cl     13.2577602942  11.2090973958  12.1473451238
 Cl     14.8744177587   8.8804487252  12.9375951394
 Cl      6.9918932930  16.7847273656  15.8283471921
 Cl      7.7600666841  15.6421090605  13.2155852000
 Cl     16.6601139181  24.9193307614  17.1786855178
 Cl     15.3552116194  23.7652675796  19.5610519780
 Cl     21.2374942391  22.1086941090  19.1851025124
 Cl     22.0825525950  22.4509765738  16.3781230058
 Cl     12.1195844318  15.9918640442  21.1404822671
 Cl     10.3899302256  18.2399527629  20.3665577988
 Cl     18.3968440627  17.3450550199  21.6726006066
 Cl     15.5025709718  17.9085763760  21.7413904718
 Cl     17.4152638968  13.0302006036  21.6387196409
 Cl     14.5493045862  13.1837333526  22.2971393569
 Cl     10.5560662759   9.0135362282  17.4659867883
 Cl     11.4449776598   9.8451923967  20.1564561308
 Cl     17.1766840648   8.2071753386  19.4063487985
 Cl     15.8565130551   7.0715412142  17.0214707307
 Cl     21.4993962420  10.9161521547  11.8999096538
 Cl     22.6445266533  10.3080747180  14.5519255313
 Cl     24.7118281182  15.5634159159  13.6933239539
 Cl     23.2010632228  17.3954518807  11.9393944128
 Cl     20.3610893161  14.4420681483  20.0807727565
 Cl     22.8461076094  15.9430055996  19.5551477636
