CRYSTAL
PRIMVEC
  32.0000000000   0.0000000000   0.0000000000
   0.0000000000  32.0000000000   0.0000000000
   0.0000000000   0.0000000000  32.0000000000
PRIMCOORD
  148    1
 Mn     17.3691553770  15.5184201110  14.8862022224
 Mn     14.4696230390  16.5543467129  15.0477452357
 Mn     15.5613606436  14.6394973919  16.9314393635
 Mn     16.6433028808  17.3982952319  16.8705753269
 Mn     20.0049026950  14.4467995040  14.6464190830
 Mn     19.9729538658  17.6637945031  15.8108758605
 Mn     11.7492460647  17.5203463640  15.4188601459
 Mn     11.9891648436  14.3737867746  16.5179942068
 Mn     14.5312102684  12.0026447722  17.0729581602
 Mn     17.6707327158  12.1103283107  15.7393380310
 Mn     17.6342853096  20.0391140231  16.8032709444
 Mn     14.2765889715  19.8854539748  16.0179951989
 O      17.2784236945  15.5656385112  16.8055773551
 O      19.1908109042  16.1709171594  14.8915128326
 O      18.2272557915  13.7753397075  14.9466650561
 O      17.3367301291  15.5479861045  12.9055131066
 O      19.4005426725  14.6557840525  12.4887768523
 O      20.7156160083  14.2986082726  16.7709865899
 O      20.8333128639  16.4716457811  17.4286140291
 O      20.7886503456  12.6486845110  14.2757006616
 O      20.9735350186  19.1824106966  16.6910705069
 O      21.8021775682  15.1734094532  14.1426524888
 O      21.7710709520  17.3442901810  14.8544970362
 O      19.7793054627  19.0976526587  14.1052614287
 O      14.9518131855  16.4622839357  16.9621348454
 O      12.5028891786  15.7854884442  15.4368073407
 O      13.5745753346  18.2314225432  15.3938615867
 O      14.0712081885  16.6224755310  13.0975287161
 O      11.9344509809  17.4278693270  13.1910327619
 O      11.6747771963  17.6692671468  17.6786110897
 O      11.7788079617  15.5017632291  18.3282157550
 O      10.9400189644  19.3435833990  15.2390631765
 O      11.2208860129  12.8525878340  17.5775919297
 O       9.8578202920  16.8678656281  15.3454586217
 O       9.9778718002  14.7023978768  16.0653289168
 O      11.9209261049  12.9957624932  14.7423185349
 O      15.5603721022  14.8704057833  15.0195874209
 O      16.2586318717  12.8477028648  16.8018369221
 O      13.8639701928  13.7856922647  16.9192463631
 O      15.6837210284  14.5416034969  18.9051312404
 O      14.8719895018  12.4300818234  19.2395687030
 O      14.2281271119  11.5915448787  14.8856646887
 O      16.3618753665  11.4658358291  14.1127617853
 O      12.7603231587  11.1705343124  17.4934468600
 O      19.1484706936  11.1327584422  14.7632184803
 O      15.2566019429  10.1618712349  17.3411375151
 O      17.3977237571  10.2583379271  16.5555434171
 O      19.0887432493  12.2994933166  17.5151838188
 O      16.5854721144  17.2152558010  14.9959838507
 O      15.9184032044  19.1654889459  16.7738837459
 O      18.3608643126  18.2559663262  16.7012718967
 O      16.7506818315  17.5446552131  18.8629123798
 O      17.5829811234  19.6709084904  19.0073900000
 O      17.5203844011  20.3383879028  14.5479571667
 O      15.2886526994  20.4049994871  14.1700706973
 O      19.4453689124  20.8714417862  16.9041375039
 O      12.6526791655  20.8601761721  15.2767516300
 O      16.9362580691  21.8819484487  17.1146425549
 O      14.6904235358  21.7501485846  16.7268207373
 O      13.1643234070  19.7990646425  17.9800923917
 C      18.3026257290  15.1609225733  12.1581456796
 C      18.1087800142  15.3766030912  10.6418824393
 C      21.0172929755  15.2444076856  17.5806227858
 C      21.6809440717  14.7496725939  18.8895227083
 C      20.2687251691  11.4978359972  14.3028619037
 C      21.0966587647  10.3359992058  13.7121237854
 C      22.2740542101  16.3378704414  14.2775696895
 C      23.6568395941  16.6161769395  13.6481728137
 C      12.9578039894  17.0299298330  12.5966672672
 C      12.9553879150  16.9536186774  11.0523087077
 C      11.8146206412  16.7360410576  18.5388751293
 C      12.1040121124  17.2275286373  19.9836093658
 C      11.4615466597  20.4919865537  15.1007001437
 C      10.4381812591  21.5766673953  14.6965414269
 C       9.3874767235  15.7234111274  15.6161259572
 C       7.8754788466  15.5178354429  15.3758136625
 C      15.3591640992  13.5152275577  19.6137012126
 C      15.6979176823  13.7287878950  21.1063753864
 C      15.1088678264  11.4135626694  13.9871811267
 C      14.6353352911  11.0741878226  12.5550175497
 C      11.6398952554  11.6758071525  17.7811455937
 C      10.5965306583  10.7612497495  18.4569398553
 C      16.4081223588   9.6987982291  17.1106277547
 C      16.6823224860   8.2404864178  17.5372033076
 C      17.1578294099  18.5880491807  19.4800949363
 C      17.1058443554  18.5345276270  21.0234441815
 C      16.4807019622  20.2800144250  13.8089857184
 C      16.7346220213  19.9273390821  12.3153376305
 C      20.5991033173  20.3587768668  16.9675518483
 C      21.7551642177  21.2739672624  17.4270086126
 C      15.7578153097  22.3313182950  17.0777893682
 C      15.5372927103  23.7915566737  17.5313648932
 H      18.9256598389  19.6293672811  14.0984536439
 H      19.9368255535  18.7880450156  13.1985309587
 H      22.1379958278  13.7692822429  18.7307179450
 H      20.5039330121   9.4189911014  13.7409319858
 H      24.0260153652  17.5826223460  13.9989486655
 H      12.7270120483  12.4115165232  14.6644388411
 H      11.9183374905  13.5293236629  13.9275370492
 H      13.0297227210  17.8168979312  19.9697125592
 H      18.5915248849  12.5745422831  18.3070399060
 H      19.7600731761  13.0199687718  17.3597476494
 H      15.7858642548  14.7946726111  21.3332898952
 H       9.7530960665  11.3670513674  18.7959927783
 H      17.7405487643   8.0142011886  17.3885276718
 H      12.4743386690  19.0674464248  17.9695732846
 H      12.7250996660  20.6212989030  18.2541249563
 H      17.6823074251  19.3717575167  21.4242468471
 H       9.5033274162  21.0993798929  14.3935981154
 H      16.9976383419  18.8615200260  12.2700036327
 H      13.9796832222  16.9292091989  10.6713521020
 H      18.8778520209  14.8181836482  10.1027128915
 H      15.5017235253  10.8627995043  11.9244045400
 H       7.6019324665  14.4969199564  15.6514440767
 H      14.5704772070  24.1415007423  17.1613412066
 H      22.6518401544  20.6699169682  17.5829513064
 Cl     11.0212680601  22.5588566678  13.3475606366
 Cl     10.0755091595  22.5648387932  16.1436143590
 Cl     18.1382115877  20.8187191048  11.6468728059
 Cl     15.3100483601  20.1445701531  11.2918641102
 Cl     12.1903675135  15.4001678184  10.5834797342
 Cl     12.1207060247  18.3280694936  10.3146841336
 Cl     18.3877064561  17.1107999820  10.2805373714
 Cl     16.5272572087  14.8260769380  10.0657520670
 Cl     13.8026225321  12.4802057407  11.8357130068
 Cl     13.6054058332   9.6205750805  12.5539789676
 Cl      6.9346174546  16.6201637255  16.4086580484
 Cl      7.4979767267  15.7266088292  13.6508966011
 Cl     16.7871756299  24.8789783510  16.9151668670
 Cl     15.4505466684  23.8022986311  19.3157659056
 Cl     21.3663572834  22.0784794815  18.9564599488
 Cl     22.1172014618  22.4350422608  16.1245150059
 Cl     12.3358129482  15.9164349035  21.1421535520
 Cl     10.8065208012  18.3442876068  20.5195107580
 Cl     17.8012601584  17.0395538307  21.6791659242
 Cl     15.4157665738  18.7719078922  21.5598172980
 Cl     17.3188865856  13.0068949976  21.3841426260
 Cl     14.4848283462  13.0205998747  22.1774946223
 Cl      9.9700982317   9.6183509952  17.2393404590
 Cl     11.2801993424   9.9361362623  19.8656806017
 Cl     16.3113579696   8.0019960486  19.2535568046
 Cl     15.7526009480   7.1458806859  16.4826900268
 Cl     21.5076357963  10.6625257560  12.0172888379
 Cl     22.5406248127  10.0690229530  14.7182986302
 Cl     24.8413304847  15.3808963866  14.1051929544
 Cl     23.4558739575  16.7400558474  11.8797729545
 Cl     20.3930154788  14.5275793266  20.1106632007
 Cl     22.9533906496  15.8434692602  19.4626515622
