CRYSTAL
PRIMVEC
  25.0000000000   0.0000000000   0.0000000000
   0.0000000000  25.0000000000   0.0000000000
   0.0000000000   0.0000000000  25.0000000000
PRIMCOORD
  100    1
 Mn     11.4397726060  13.6240615840  13.3912172320
 Mn     13.6743936540  13.5317068100  11.6107616420
 Mn     13.3984146120  11.4630270000  13.5967969890
 Mn     11.5401840210  11.4934148790  11.2614078520
 Mn      9.4343500140  15.6228303910  13.1777172090
 Mn     12.4609870910  16.7873477940  12.1972904210
 Mn     15.6231479640  15.5974674220  11.6336460110
 Mn     16.6883029940  12.6045989990  13.1091918950
 Mn     15.3780002590   9.4388847350  13.7906599040
 Mn     12.5319795610   8.2755136490  12.2813920970
 Mn      9.5644226070   9.4288082120  11.0814380650
 Mn      8.3195905690  12.3528041840  12.4571685790
 O      13.3651552200  13.4178590770  13.5146589280
 O      11.7582149510  13.4317531590  11.4877491000
 O      13.4773445130  11.6234369280  11.6781215670
 O      11.5253562930  11.7321453090  13.5466337200
 O       9.5780944820  13.7095470430  13.0862121580
 O      11.3677453990  15.5629272460  13.1822347640
 O      13.7228593830  15.4382381440  11.6080942150
 O      15.5761566160  13.6697845460  11.9329900740
 O      15.3313684460  11.3561544420  13.6311244960
 O      13.4743423460   9.5537033080  13.4517459870
 O      11.4627752300   9.5700111390  11.3729295730
 O       9.5454292300  11.3424615860  11.3979854580
 O      17.2837352750  11.4675712590  11.2282800670
 O      16.1641349790  13.7917737960  14.9545640950
 O       7.9287915230  13.4796943660  10.4976120000
 O       8.8450880050  11.2426996230  14.3196077350
 O      11.2474985120  13.8338193890  15.3461112980
 O       9.5804843900  15.4058008190  15.4124650960
 O      13.9405412670  13.4609375000   9.6627426150
 O      15.5511722560  15.0742073060   9.4339113240
 O      13.3901062010  11.4440593720  15.5814514160
 O      14.8853645320   9.7495965960  15.9624528880
 O      11.3734054570  11.5029659270   9.1194219590
 O       9.8302087780   9.8294010160   8.9390707020
 O       9.2888784410  17.5982093810  13.4023275380
 O      11.3626575470  18.3824920650  12.8262147900
 O      11.2307701110  16.6918926240  10.3829174040
 O       9.2366456990  15.7629880910  10.9633560180
 O       7.4327096940  15.5888423920  13.3555383680
 O       6.8223662380  13.3765354160  13.3339138030
 O      13.4681282040  18.2143993380  11.1786203380
 O      15.6540708540  17.5251197810  11.0941944120
 O      13.7413368230  17.3265972140  13.9495983120
 O      15.6801748280  16.1414470670  13.7961254120
 O      17.6208896640  15.6868095400  11.5948524480
 O      18.2608432770  13.8372612000  12.7899227140
 O      18.0704212190  11.5620355610  14.1338186260
 O      17.3285522460   9.3964605330  14.2972049710
 O      15.9816799160   9.2123765950  11.6550731660
 O      14.1195802690   8.2789640430  10.7408809660
 O      13.4954032900   6.7036023140  13.1299629210
 O      15.4153804780   7.4766488080  14.1097650530
 O      11.7449893950   6.7981801030  11.1164913180
 O       9.6145000460   7.4787387850  10.6080484390
 O       9.1021528240   8.8150901790  13.2216434480
 O      11.0218744280   7.7309412960  13.7905864720
 O       6.7970609660  11.0843772890  12.0198421480
 O       7.5776672360   9.3066854480  10.8001174930
 C      10.4112234120  14.6250143050  15.9253520970
 C      14.7473897930  14.2187986370   9.0021820070
 C      14.0729007720  10.6319828030  16.3142261510
 C      10.6350984570  10.6922550200   8.4792594910
 C      10.1799573900  18.4899845120  13.2495965960
 C      10.1273956300  16.1514320370  10.1285905840
 C       6.6417684560  14.6141157150  13.5269746780
 C      14.6927461620  18.3303546910  10.8969736100
 C      14.8029727940  16.8503131870  14.4119625090
 C      18.4554004670  14.9064693450  12.1421489720
 C      18.1556968690  10.3396329880  14.4565553670
 C      15.2622108460   8.7835378650  10.6811199190
 C      14.5603609090   6.5921983720  13.7922983170
 C      10.5941486360   6.6731057170  10.6128444670
 C       9.8402185440   8.1061859130  13.9899034500
 C       6.6833467480  10.0397157670  11.3117628100
 H      10.4701499940  14.5714645390  17.0338172910
 H      14.6931333540  14.0474586490   7.9058318140
 H      13.8855848310  10.7729177470  17.4006767270
 H      10.7006874080  10.7537555690   7.3683433530
 H       9.8634309770  19.5165863040  13.5255250930
 H       9.8801889420  15.9953174590   9.0544900890
 H       5.6315259930  14.8860301970  13.8954162600
 H      14.9754371640  19.2840423580  10.4063501360
 H      15.0289802550  17.0584468840  15.4828920360
 H      19.5173892970  15.2095632550  12.0422592160
 H      14.7959795000   5.5689649580  14.1490936280
 H      10.4062242510   5.7065935130  10.1008701320
 H       5.6400642400   9.7186307910  11.1138534550
 H      16.7449035640  11.9470319750  10.5723485950
 H      16.8592643740  10.5531053540  11.3012599950
 H       8.5308694840  12.9419279100   9.9484186170
 H       8.3676080700  14.3822698590  10.5639486310
 H       8.7707834240  10.2868671420  14.0477809910
 H       9.8249273300  11.3881978990  14.3477621080
 H      15.2515439990  13.4978694920  15.1448192600
 H      16.0567855830  14.7377014160  14.6381587980
 H      19.1085243230  10.0561666490  14.9484720230
 H       9.3731412890   7.7924637790  14.9519577030
 H      15.7256288530   8.8713121410   9.6720333100
