CRYSTAL
PRIMVEC
  25.0000000000   0.0000000000   0.0000000000
   0.0000000000  25.0000000000   0.0000000000
   0.0000000000   0.0000000000  25.0000000000
PRIMCOORD
  100    1
 Mn     11.3566224949  13.5657713683  13.3661282908
 Mn     13.5936044896  13.5698990691  11.6077114089
 Mn     13.4604818150  11.4613339602  13.5894863694
 Mn     11.5178210477  11.4351402199  11.4093081731
 Mn      9.3352360460  15.5614433675  13.2618734663
 Mn     12.3909633372  16.7860257753  12.3969777129
 Mn     15.5237453644  15.6570201031  11.6749486852
 Mn     16.7013371617  12.5938533049  12.9169446332
 Mn     15.4337345210   9.4722041498  13.9428884906
 Mn     12.5737744641   8.0688036832  12.4516646552
 Mn      9.6178624281   9.3710009978  11.0530203810
 Mn      8.2561435597  12.3777194001  12.2543555559
 O      13.2704335305  13.4424097262  13.4946862098
 O      11.6797799878  13.4146316942  11.4839561421
 O      13.4584198228  11.6387255619  11.6511857462
 O      11.5172749484  11.6312108629  13.3508444671
 O       9.4694956294  13.6424090073  13.0713814333
 O      11.2615325890  15.4843968402  13.2686026487
 O      13.6117620042  15.4879996537  11.6526647244
 O      15.4827656787  13.7299186242  11.9205854853
 O      15.3652010723  11.4255206241  13.6469279465
 O      13.5795363777   9.6180453347  13.5799279965
 O      11.4619360691   9.5910513924  11.4121956494
 O       9.6062326811  11.3289513886  11.3696562586
 O      16.9662697684  11.4185064495  11.0149712078
 O      16.5205284402  13.7793209399  14.8449672082
 O       8.0997543246  13.5394213449  10.2968999161
 O       8.3495012280  11.2155393884  14.1712750401
 O      11.0894230215  13.5930752380  15.3241195381
 O       9.4717187936  15.2084935593  15.4812679702
 O      13.8763562149  13.5647313374   9.6519048470
 O      15.4328608644  15.2363052235   9.4660590771
 O      13.3417320201  11.5446584774  15.5497772190
 O      14.9482096146  10.0087360457  16.1098893243
 O      11.6313104229  11.5197146846   9.4516212441
 O      10.0504526874   9.9588960574   8.8900696193
 O       9.2114290847  17.5200165726  13.6138785040
 O      11.3098216681  18.3211554628  13.1646933464
 O      11.1375286324  16.8893943552  10.5847166466
 O       9.1711866789  15.8467325081  11.0549020433
 O       7.3400459234  15.5704970042  13.4014060519
 O       6.6760099024  13.4192870434  12.9618373078
 O      13.3848938669  18.3034764419  11.4973700422
 O      15.5527426445  17.6078584257  11.2392294355
 O      13.6391135457  17.1416754116  14.1907136155
 O      15.6218211705  16.0740617386  13.8651490485
 O      17.5151148692  15.7702973346  11.5755536070
 O      18.2645740190  13.7563539299  12.3757820160
 O      18.1769495654  11.5257777651  13.7634912283
 O      17.3976117123   9.4691700549  14.4157777457
 O      16.0132615536   9.1060368246  11.8063174018
 O      14.2145081126   7.9677997007  10.9949297994
 O      13.6045793108   6.5491420144  13.6324472552
 O      15.4806060292   7.5618099660  14.4600399660
 O      11.6317502360   6.5517986747  11.1884065271
 O       9.6554572553   7.4701986851  10.4931210463
 O       9.0849035887   8.8899043351  13.1806773407
 O      10.9351407846   7.7630897560  13.8888322751
 O       6.7876235879  11.1759796411  11.5935010180
 O       7.6466475733   9.2875742210  10.6175522665
 C      10.2701833179  14.3687235173  15.9493022719
 C      14.6625917303  14.3620427066   9.0131801341
 C      14.0369119321  10.8192743187  16.3649022523
 C      10.9476656426  10.7863452233   8.6361477999
 C      10.1172129453  18.4082397703  13.5640726871
 C      10.0472212912  16.3582476240  10.2702413192
 C       6.5071082346  14.6182894736  13.3235901627
 C      14.5937201293  18.4349989393  11.1609094795
 C      14.7309530436  16.6631524769  14.5760437722
 C      18.3949949111  14.9077336431  11.8720867737
 C      18.2670312164  10.3741619819  14.2897778281
 C      15.3374201599   8.5041064720  10.8914688297
 C      14.6711636250   6.5796193147  14.2772318165
 C      10.5352355616   6.5376732109  10.5951888553
 C       9.7850187664   8.2279609580  14.0343315570
 C       6.7268324691  10.0852908895  10.9459371206
 H      10.3093620398  14.2348119230  17.0517175686
 H      14.6242659329  14.2117977687   7.9126288949
 H      13.7507346872  10.9862332869  17.4264491187
 H      11.2282119176  10.9620869238   7.5745237378
 H       9.8073176879  19.4116529295  13.9203023667
 H       9.7951303989  16.3263799064   9.1860021770
 H       5.4683570841  14.8798241156  13.6107508945
 H      14.8619484857  19.4243860411  10.7378528598
 H      14.9705305786  16.7570215541  15.6596918414
 H      19.4399304646  15.2141351378  11.6625695579
 H      19.2713640241  10.1318655037  14.6938939781
 H      15.8296615217   8.4653796692   9.8917585250
 H      15.0059249604   5.6429577200  14.7758850861
 H      10.2380268725   5.6018544510  10.0713744131
 H       9.2898962255   8.0612797369  15.0193701741
 H       5.7043343479   9.7950425986  10.6286062768
 H      16.2535461400  11.7656353286  10.4475745434
 H      16.6827314041  10.4721746743  11.2397966367
 H       8.7958961425  13.0842600779   9.7879711915
 H       8.4576024107  14.4635893882  10.4733226064
 H       8.5276013185  10.2660944926  13.8785631536
 H       9.1922790930  11.5047738318  14.5707041733
 H      15.7317765664  13.3638046427  15.2406229012
 H      16.2288447533  14.7057761350  14.5857071781
