CRYSTAL
PRIMVEC
  31.0000000000   0.0000000000   0.0000000000
   0.0000000000  31.0000000000   0.0000000000
   0.0000000000   0.0000000000  31.0000000000
PRIMCOORD
  148    1
 Mn     16.7389764134  14.5761992114  14.6517214403
 Mn     14.0643417848  15.8898659766  14.3620535045
 Mn     14.7923077631  14.3856859395  16.7889678817
 Mn     16.1215475696  16.9790461258  16.0915963617
 Mn     19.3930746853  13.5778302070  14.7088247456
 Mn     19.2723182813  16.9990441102  14.6171958177
 Mn     11.4430706039  16.8591715229  13.9671958084
 Mn     11.4105868728  13.7376014256  15.6085170881
 Mn     13.8244975491  11.8720459468  17.6060099034
 Mn     17.1452239793  11.7998016628  16.7196917060
 Mn     17.1215316677  19.5802119276  15.5526801630
 Mn     13.7597391487  19.3004349659  14.9361141131
 O      16.6169891539  15.1683566036  16.4826685855
 O      18.5036521203  15.2415407816  14.4510966663
 O      17.6061542018  12.9715133165  15.2332833357
 O      16.6918571801  13.9734123773  12.7895010975
 O      18.7671866301  13.0434481997  12.6204029792
 O      20.1865939092  14.2184789711  16.6877585198
 O      20.4977371281  16.4412525632  16.3493076525
 O      20.2349286981  11.7992986660  14.9564331305
 O      20.2122371143  18.7797140615  14.5787706123
 O      21.1148080257  14.2062685832  13.8756441236
 O      20.8083247027  16.4299875671  13.4495159006
 O      18.1097110472  17.4776417846  12.7010184410
 O      14.3247795970  16.2218006806  16.2750001756
 O      12.3392464105  15.2867941049  14.4993978330
 O      13.2792811145  17.6143909262  14.1397699855
 O      14.1182016462  15.5588634277  12.4418717188
 O      12.0943299032  16.4199438607  11.8372312408
 O      10.7196264585  17.2602754202  16.0536605340
 O      10.3658781077  15.1716254889  16.8780975627
 O      10.6418698976  18.6096411087  13.3990475447
 O      10.5886604924  12.0200767481  16.6166771747
 O       9.7003777093  16.0164766113  13.5021058164
 O       9.7401916870  13.8505348358  14.2125392208
 O      12.5385600935  12.3857772344  14.1246030635
 O      14.8711500464  14.1408152306  14.8488155809
 O      15.5253836266  12.7024862933  17.1752231937
 O      13.1600356325  13.5258152410  16.8930938926
 O      14.7870158885  14.8950766690  18.6709878200
 O      14.0047287108  12.9629574643  19.5990446960
 O      13.9180482517  10.6785801327  15.7118120561
 O      16.1470981785  10.3192813608  15.4723165369
 O      12.0654429647  11.1093404462  18.0904185464
 O      18.8704466796  10.7866203489  16.4800327212
 O      14.6726414884  10.3051724157  18.5646048116
 O      16.9250974876  10.5724252408  18.2919295300
 O      18.1514485647  13.2957046670  18.1765400405
 O      15.9863757554  16.3339790066  14.2778769637
 O      15.4458514317  18.6864951200  15.6558998661
 O      17.8331670364  17.7537487465  15.6738387508
 O      16.2820202175  17.4499743060  17.9842755663
 O      17.1599436105  19.5462354970  17.7995073205
 O      16.9665666698  19.8078089431  13.3478150054
 O      14.7283103886  20.1114614436  13.1250120287
 O      18.9196127834  20.4238787260  15.4921636332
 O      12.0423131771  20.1437926285  14.3443706322
 O      16.3319188401  21.4170222120  15.7502947586
 O      14.0696533599  21.1010293611  15.7897232979
 O      12.8530371572  18.6077812287  16.9124219042
 C      17.6359862956  13.3386324675  12.1649973990
 C      17.2622436347  12.9223928119  10.7552459930
 C      20.5912702011  15.3882694322  17.0417463169
 C      21.2346272165  15.4857913081  18.4154846113
 C      19.8797981987  10.8336196609  15.7106509701
 C      20.7546381222   9.5977244901  15.6770124782
 C      21.4157401427  15.3174179952  13.3317271343
 C      22.6302249883  15.3091966447  12.4244620457
 C      13.1848824710  15.8621189480  11.5863615846
 C      13.5238317373  15.4610811445  10.1619949719
 C      10.2914406029  16.4280702856  16.9423508565
 C       9.6434942107  17.0486914511  18.1719987956
 C      11.0159519526  19.7910192368  13.6729483806
 C      10.1593934599  20.9231955933  13.1427441943
 C       9.2361730234  14.8142489750  13.5855220084
 C       7.9445970503  14.5914205455  12.8143373976
 C      14.3859916989  14.1524592870  19.6625643429
 C      14.3885048103  14.8752115105  20.9973260498
 C      14.9370204593  10.1599592743  15.1301877597
 C      14.6480666775   9.2763544999  13.9264470905
 C      10.8913725938  11.2759279872  17.5827660897
 C       9.7880557575  10.4857423393  18.2649891508
 C      15.8892881299  10.0628849316  18.8353028485
 C      16.1466979695   9.0645785749  19.9476204512
 C      16.7412164335  18.5663734113  18.4611582637
 C      16.7367250893  18.6263365022  19.9769287767
 C      15.9028596161  20.0684881178  12.6663855765
 C      16.1107460031  20.3420187580  11.1855271722
 C      20.0145907082  19.9438044111  15.0513066991
 C      21.2219973479  20.8566056221  15.1032513672
 C      15.1290929418  21.7811826941  15.9658647612
 C      14.9481286370  23.1842255143  16.5106796171
 H      17.8038862816  18.4230126885  12.7932218201
 H      17.2941693791  16.9709463418  12.9243095876
 H      18.1584479485  12.6374209338  10.1940638302
 H      16.7232003376  13.7317001601  10.2476755596
 H      16.5836127107  12.0587793873  10.8142686865
 H      22.1050158061  14.8162763406  18.4614710995
 H      20.5215743497  15.1392807668  19.1776107711
 H      21.5401351435  16.5142238463  18.6344603384
 H      20.8207230370   9.1575802144  16.6786730251
 H      20.2737337067   8.8602214662  15.0175038603
 H      21.7480758294   9.8336765736  15.2820728395
 H      22.3228568544  14.9037004531  11.4492470417
 H      23.3998026655  14.6452897663  12.8353272244
 H      23.0183882189  16.3228922244  12.2822156010
 H      12.9125398291  11.6335405162  14.6593895892
 H      13.3237006660  12.9562354335  13.9809231365
 H      12.7554169237  15.8282545092   9.4739184562
 H      13.5833225884  14.3651891972  10.1019862988
 H      14.5087157807  15.8597053557   9.8846083985
 H       8.7795124299  17.6542376800  17.8635990531
 H      10.3566447117  17.7293310037  18.6593983292
 H       9.3250017918  16.2758210011  18.8794441033
 H      10.0388339362  21.6928989237  13.9147264804
 H      10.6856969513  21.3841593890  12.2941957058
 H       9.1870918770  20.5491660666  12.8068238568
 H       8.1752678801  14.5770351201  11.7389644033
 H       7.2494800331  15.4228412451  12.9884745190
 H       7.4874449539  13.6378414859  13.0993947478
 H      19.0151045796  13.5581718397  17.7536066162
 H      17.5735875852  14.0655816007  17.9798173160
 H      14.3488727863  14.1507330227  21.8178258460
 H      15.2713097512  15.5200187271  21.0863720890
 H      13.4982268855  15.5196140673  21.0458305555
 H      14.0086085090   8.4371568980  14.2345548840
 H      14.0833758428   9.8521315687  13.1789369773
 H      15.5750544221   8.8973581036  13.4832319839
 H       8.9438284462  10.3461732949  17.5808206156
 H       9.4395663939  11.0630670299  19.1345835663
 H      10.1643200185   9.5225117930  18.6292501801
 H      16.0510857718   9.5947543330  20.9067368348
 H      15.3869566580   8.2747238113  19.9239034903
 H      17.1554880226   8.6453823844  19.8730496463
 H      11.9505956548  18.2493431783  16.6699826723
 H      13.3795581354  17.7817755567  17.0261811687
 H      17.1863140830  19.5633330410  20.3212974799
 H      15.7015276373  18.5516013130  20.3379020446
 H      17.2876726577  17.7675350777  20.3832714671
 H      16.8112849997  21.1792718180  11.0593083232
 H      16.5723425261  19.4617439786  10.7146637755
 H      15.1601062332  20.5677227729  10.6913756168
 H      21.8292322155  20.7254829651  14.1999166280
 H      21.8369993054  20.5585165719  15.9651101209
 H      20.9163866617  21.9007065569  15.2248121085
 H      15.1821317774  23.1656319524  17.5852427314
 H      15.6569409487  23.8669864459  16.0271413487
 H      13.9171476763  23.5258293307  16.3740463966
